#       Name:                GA Fitting Points
#       Creating user name   gordon
#       Creation time:       Mon Aug 16 20:39:35 2021


#       Fitting Points Used by GA Software.
#

@<TRIPOS>MOLECULE
GA Fitting Points
  7517    0    0
SMALL
NO_CHARGES


@<TRIPOS>ATOM
      1 ****         3.5000  28.2500  25.5000 Du        
      2 ****         3.5000  28.5000  25.2500 Du        
      3 ****         3.5000  28.5000  25.5000 Du        
      4 ****         3.5000  28.7500  25.2500 Du        
      5 ****         3.7500  19.7500  26.2500 Du        
      6 ****         3.7500  20.0000  26.0000 Du        
      7 ****         3.7500  20.0000  26.2500 Du        
      8 ****         3.7500  20.0000  26.5000 Du        
      9 ****         3.7500  20.2500  26.0000 Du        
     10 ****         3.7500  20.2500  26.2500 Du        
     11 ****         3.7500  20.2500  26.5000 Du        
     12 ****         3.7500  20.2500  26.7500 Du        
     13 ****         3.7500  20.5000  26.0000 Du        
     14 ****         3.7500  20.5000  26.2500 Du        
     15 ****         3.7500  20.5000  26.5000 Du        
     16 ****         3.7500  20.5000  26.7500 Du        
     17 ****         3.7500  20.7500  26.0000 Du        
     18 ****         3.7500  20.7500  26.2500 Du        
     19 ****         3.7500  20.7500  26.5000 Du        
     20 ****         3.7500  20.7500  26.7500 Du        
     21 ****         3.7500  20.7500  27.0000 Du        
     22 ****         3.7500  21.0000  26.2500 Du        
     23 ****         3.7500  21.0000  26.5000 Du        
     24 ****         3.7500  21.0000  26.7500 Du        
     25 ****         3.7500  21.0000  27.0000 Du        
     26 ****         3.7500  21.2500  26.7500 Du        
     27 ****         3.7500  28.0000  25.5000 Du        
     28 ****         3.7500  28.0000  25.7500 Du        
     29 ****         3.7500  28.2500  25.2500 Du        
     30 ****         3.7500  28.2500  25.5000 Du        
     31 ****         3.7500  28.2500  25.7500 Du        
     32 ****         3.7500  28.5000  25.2500 Du        
     33 ****         3.7500  28.5000  25.5000 Du        
     34 ****         3.7500  28.5000  25.7500 Du        
     35 ****         3.7500  28.7500  25.2500 Du        
     36 ****         3.7500  28.7500  25.5000 Du        
     37 ****         3.7500  28.7500  25.7500 Du        
     38 ****         4.0000  19.0000  26.5000 Du        
     39 ****         4.0000  19.2500  26.2500 Du        
     40 ****         4.0000  19.2500  26.5000 Du        
     41 ****         4.0000  19.2500  26.7500 Du        
     42 ****         4.0000  19.5000  26.2500 Du        
     43 ****         4.0000  19.5000  26.5000 Du        
     44 ****         4.0000  19.5000  26.7500 Du        
     45 ****         4.0000  19.7500  26.0000 Du        
     46 ****         4.0000  19.7500  26.2500 Du        
     47 ****         4.0000  19.7500  26.5000 Du        
     48 ****         4.0000  19.7500  26.7500 Du        
     49 ****         4.0000  19.7500  27.0000 Du        
     50 ****         4.0000  20.0000  26.0000 Du        
     51 ****         4.0000  20.0000  26.2500 Du        
     52 ****         4.0000  20.0000  26.5000 Du        
     53 ****         4.0000  20.0000  26.7500 Du        
     54 ****         4.0000  20.0000  27.0000 Du        
     55 ****         4.0000  20.2500  25.7500 Du        
     56 ****         4.0000  20.2500  26.0000 Du        
     57 ****         4.0000  20.2500  26.2500 Du        
     58 ****         4.0000  20.2500  26.5000 Du        
     59 ****         4.0000  20.2500  26.7500 Du        
     60 ****         4.0000  20.2500  27.0000 Du        
     61 ****         4.0000  20.5000  25.7500 Du        
     62 ****         4.0000  20.5000  26.0000 Du        
     63 ****         4.0000  20.5000  26.2500 Du        
     64 ****         4.0000  20.5000  26.5000 Du        
     65 ****         4.0000  20.5000  26.7500 Du        
     66 ****         4.0000  20.5000  27.0000 Du        
     67 ****         4.0000  20.5000  27.2500 Du        
     68 ****         4.0000  20.7500  25.7500 Du        
     69 ****         4.0000  20.7500  26.0000 Du        
     70 ****         4.0000  20.7500  26.2500 Du        
     71 ****         4.0000  20.7500  26.5000 Du        
     72 ****         4.0000  20.7500  26.7500 Du        
     73 ****         4.0000  20.7500  27.0000 Du        
     74 ****         4.0000  20.7500  27.2500 Du        
     75 ****         4.0000  21.0000  26.0000 Du        
     76 ****         4.0000  21.0000  26.2500 Du        
     77 ****         4.0000  21.0000  26.5000 Du        
     78 ****         4.0000  21.0000  26.7500 Du        
     79 ****         4.0000  21.0000  27.0000 Du        
     80 ****         4.0000  21.0000  27.2500 Du        
     81 ****         4.0000  21.2500  26.2500 Du        
     82 ****         4.0000  21.2500  26.5000 Du        
     83 ****         4.0000  21.2500  26.7500 Du        
     84 ****         4.0000  21.2500  27.0000 Du        
     85 ****         4.0000  21.2500  27.2500 Du        
     86 ****         4.0000  21.5000  27.0000 Du        
     87 ****         4.0000  27.5000  26.0000 Du        
     88 ****         4.0000  27.5000  26.2500 Du        
     89 ****         4.0000  27.7500  25.7500 Du        
     90 ****         4.0000  27.7500  26.0000 Du        
     91 ****         4.0000  27.7500  26.2500 Du        
     92 ****         4.0000  28.0000  25.5000 Du        
     93 ****         4.0000  28.0000  25.7500 Du        
     94 ****         4.0000  28.0000  26.0000 Du        
     95 ****         4.0000  28.0000  26.2500 Du        
     96 ****         4.0000  28.2500  25.2500 Du        
     97 ****         4.0000  28.2500  25.5000 Du        
     98 ****         4.0000  28.2500  25.7500 Du        
     99 ****         4.0000  28.2500  26.0000 Du        
    100 ****         4.0000  28.2500  26.2500 Du        
    101 ****         4.0000  28.5000  25.2500 Du        
    102 ****         4.0000  28.5000  25.5000 Du        
    103 ****         4.0000  28.5000  25.7500 Du        
    104 ****         4.0000  28.5000  26.0000 Du        
    105 ****         4.0000  28.5000  26.2500 Du        
    106 ****         4.0000  28.7500  25.2500 Du        
    107 ****         4.0000  28.7500  25.5000 Du        
    108 ****         4.0000  28.7500  25.7500 Du        
    109 ****         4.0000  28.7500  26.0000 Du        
    110 ****         4.2500  18.7500  26.7500 Du        
    111 ****         4.2500  19.0000  26.5000 Du        
    112 ****         4.2500  19.0000  26.7500 Du        
    113 ****         4.2500  19.0000  27.0000 Du        
    114 ****         4.2500  19.2500  26.2500 Du        
    115 ****         4.2500  19.2500  26.5000 Du        
    116 ****         4.2500  19.2500  26.7500 Du        
    117 ****         4.2500  19.2500  27.0000 Du        
    118 ****         4.2500  19.5000  26.2500 Du        
    119 ****         4.2500  19.5000  26.5000 Du        
    120 ****         4.2500  19.5000  26.7500 Du        
    121 ****         4.2500  19.5000  27.0000 Du        
    122 ****         4.2500  19.5000  27.2500 Du        
    123 ****         4.2500  19.7500  26.0000 Du        
    124 ****         4.2500  19.7500  26.2500 Du        
    125 ****         4.2500  19.7500  26.5000 Du        
    126 ****         4.2500  19.7500  26.7500 Du        
    127 ****         4.2500  19.7500  27.0000 Du        
    128 ****         4.2500  19.7500  27.2500 Du        
    129 ****         4.2500  20.0000  25.7500 Du        
    130 ****         4.2500  20.0000  26.0000 Du        
    131 ****         4.2500  20.0000  26.2500 Du        
    132 ****         4.2500  20.0000  26.5000 Du        
    133 ****         4.2500  20.0000  26.7500 Du        
    134 ****         4.2500  20.0000  27.0000 Du        
    135 ****         4.2500  20.0000  27.2500 Du        
    136 ****         4.2500  20.2500  25.7500 Du        
    137 ****         4.2500  20.2500  26.0000 Du        
    138 ****         4.2500  20.2500  26.2500 Du        
    139 ****         4.2500  20.2500  26.5000 Du        
    140 ****         4.2500  20.2500  26.7500 Du        
    141 ****         4.2500  20.2500  27.0000 Du        
    142 ****         4.2500  20.2500  27.2500 Du        
    143 ****         4.2500  20.5000  25.7500 Du        
    144 ****         4.2500  20.5000  26.0000 Du        
    145 ****         4.2500  20.5000  26.2500 Du        
    146 ****         4.2500  20.5000  26.5000 Du        
    147 ****         4.2500  20.5000  26.7500 Du        
    148 ****         4.2500  20.5000  27.0000 Du        
    149 ****         4.2500  20.5000  27.2500 Du        
    150 ****         4.2500  20.7500  25.7500 Du        
    151 ****         4.2500  20.7500  26.0000 Du        
    152 ****         4.2500  20.7500  26.2500 Du        
    153 ****         4.2500  20.7500  26.5000 Du        
    154 ****         4.2500  20.7500  26.7500 Du        
    155 ****         4.2500  20.7500  27.0000 Du        
    156 ****         4.2500  20.7500  27.2500 Du        
    157 ****         4.2500  20.7500  27.5000 Du        
    158 ****         4.2500  21.0000  25.7500 Du        
    159 ****         4.2500  21.0000  26.0000 Du        
    160 ****         4.2500  21.0000  26.2500 Du        
    161 ****         4.2500  21.0000  26.5000 Du        
    162 ****         4.2500  21.0000  26.7500 Du        
    163 ****         4.2500  21.0000  27.0000 Du        
    164 ****         4.2500  21.0000  27.2500 Du        
    165 ****         4.2500  21.0000  27.5000 Du        
    166 ****         4.2500  21.2500  26.0000 Du        
    167 ****         4.2500  21.2500  26.2500 Du        
    168 ****         4.2500  21.2500  26.5000 Du        
    169 ****         4.2500  21.2500  26.7500 Du        
    170 ****         4.2500  21.2500  27.0000 Du        
    171 ****         4.2500  21.2500  27.2500 Du        
    172 ****         4.2500  21.2500  27.5000 Du        
    173 ****         4.2500  21.5000  26.5000 Du        
    174 ****         4.2500  21.5000  26.7500 Du        
    175 ****         4.2500  21.5000  27.0000 Du        
    176 ****         4.2500  21.5000  27.2500 Du        
    177 ****         4.2500  21.7500  27.0000 Du        
    178 ****         4.2500  21.7500  27.2500 Du        
    179 ****         4.2500  26.7500  26.5000 Du        
    180 ****         4.2500  26.7500  26.7500 Du        
    181 ****         4.2500  27.0000  26.2500 Du        
    182 ****         4.2500  27.0000  26.5000 Du        
    183 ****         4.2500  27.0000  26.7500 Du        
    184 ****         4.2500  27.2500  26.0000 Du        
    185 ****         4.2500  27.2500  26.2500 Du        
    186 ****         4.2500  27.2500  26.5000 Du        
    187 ****         4.2500  27.2500  26.7500 Du        
    188 ****         4.2500  27.5000  25.7500 Du        
    189 ****         4.2500  27.5000  26.0000 Du        
    190 ****         4.2500  27.5000  26.2500 Du        
    191 ****         4.2500  27.5000  26.5000 Du        
    192 ****         4.2500  27.5000  26.7500 Du        
    193 ****         4.2500  27.7500  25.5000 Du        
    194 ****         4.2500  27.7500  25.7500 Du        
    195 ****         4.2500  27.7500  26.0000 Du        
    196 ****         4.2500  27.7500  26.2500 Du        
    197 ****         4.2500  27.7500  26.5000 Du        
    198 ****         4.2500  27.7500  26.7500 Du        
    199 ****         4.2500  28.0000  25.5000 Du        
    200 ****         4.2500  28.0000  25.7500 Du        
    201 ****         4.2500  28.0000  26.0000 Du        
    202 ****         4.2500  28.0000  26.2500 Du        
    203 ****         4.2500  28.0000  26.5000 Du        
    204 ****         4.2500  28.0000  26.7500 Du        
    205 ****         4.2500  28.2500  25.2500 Du        
    206 ****         4.2500  28.2500  25.5000 Du        
    207 ****         4.2500  28.2500  25.7500 Du        
    208 ****         4.2500  28.2500  26.0000 Du        
    209 ****         4.2500  28.2500  26.2500 Du        
    210 ****         4.2500  28.2500  26.5000 Du        
    211 ****         4.2500  28.2500  26.7500 Du        
    212 ****         4.2500  28.5000  25.2500 Du        
    213 ****         4.2500  28.5000  25.5000 Du        
    214 ****         4.2500  28.5000  25.7500 Du        
    215 ****         4.2500  28.5000  26.0000 Du        
    216 ****         4.2500  28.5000  26.2500 Du        
    217 ****         4.2500  28.5000  26.5000 Du        
    218 ****         4.2500  28.7500  25.2500 Du        
    219 ****         4.2500  28.7500  25.5000 Du        
    220 ****         4.2500  28.7500  25.7500 Du        
    221 ****         4.2500  28.7500  26.0000 Du        
    222 ****         4.2500  28.7500  26.2500 Du        
    223 ****         4.2500  28.7500  26.5000 Du        
    224 ****         4.2500  29.0000  25.7500 Du        
    225 ****         4.2500  29.0000  26.0000 Du        
    226 ****         4.2500  29.0000  26.2500 Du        
    227 ****         4.5000  18.7500  26.7500 Du        
    228 ****         4.5000  18.7500  27.0000 Du        
    229 ****         4.5000  19.0000  26.5000 Du        
    230 ****         4.5000  19.0000  26.7500 Du        
    231 ****         4.5000  19.0000  27.0000 Du        
    232 ****         4.5000  19.2500  26.5000 Du        
    233 ****         4.5000  19.2500  26.7500 Du        
    234 ****         4.5000  19.2500  27.0000 Du        
    235 ****         4.5000  19.2500  27.2500 Du        
    236 ****         4.5000  19.5000  26.2500 Du        
    237 ****         4.5000  19.5000  26.5000 Du        
    238 ****         4.5000  19.5000  26.7500 Du        
    239 ****         4.5000  19.5000  27.0000 Du        
    240 ****         4.5000  19.5000  27.2500 Du        
    241 ****         4.5000  19.7500  26.0000 Du        
    242 ****         4.5000  19.7500  26.2500 Du        
    243 ****         4.5000  19.7500  26.5000 Du        
    244 ****         4.5000  19.7500  26.7500 Du        
    245 ****         4.5000  19.7500  27.0000 Du        
    246 ****         4.5000  19.7500  27.2500 Du        
    247 ****         4.5000  19.7500  27.5000 Du        
    248 ****         4.5000  20.0000  25.7500 Du        
    249 ****         4.5000  20.0000  26.0000 Du        
    250 ****         4.5000  20.0000  26.2500 Du        
    251 ****         4.5000  20.0000  26.5000 Du        
    252 ****         4.5000  20.0000  26.7500 Du        
    253 ****         4.5000  20.0000  27.0000 Du        
    254 ****         4.5000  20.0000  27.2500 Du        
    255 ****         4.5000  20.0000  27.5000 Du        
    256 ****         4.5000  20.2500  25.7500 Du        
    257 ****         4.5000  20.2500  26.0000 Du        
    258 ****         4.5000  20.2500  26.2500 Du        
    259 ****         4.5000  20.2500  26.5000 Du        
    260 ****         4.5000  20.2500  26.7500 Du        
    261 ****         4.5000  20.2500  27.0000 Du        
    262 ****         4.5000  20.2500  27.2500 Du        
    263 ****         4.5000  20.2500  27.5000 Du        
    264 ****         4.5000  20.5000  25.5000 Du        
    265 ****         4.5000  20.5000  25.7500 Du        
    266 ****         4.5000  20.5000  26.0000 Du        
    267 ****         4.5000  20.5000  26.2500 Du        
    268 ****         4.5000  20.5000  26.5000 Du        
    269 ****         4.5000  20.5000  26.7500 Du        
    270 ****         4.5000  20.5000  27.0000 Du        
    271 ****         4.5000  20.5000  27.2500 Du        
    272 ****         4.5000  20.5000  27.5000 Du        
    273 ****         4.5000  20.7500  25.5000 Du        
    274 ****         4.5000  20.7500  25.7500 Du        
    275 ****         4.5000  20.7500  26.0000 Du        
    276 ****         4.5000  20.7500  26.2500 Du        
    277 ****         4.5000  20.7500  26.5000 Du        
    278 ****         4.5000  20.7500  26.7500 Du        
    279 ****         4.5000  20.7500  27.0000 Du        
    280 ****         4.5000  20.7500  27.2500 Du        
    281 ****         4.5000  20.7500  27.5000 Du        
    282 ****         4.5000  21.0000  25.5000 Du        
    283 ****         4.5000  21.0000  25.7500 Du        
    284 ****         4.5000  21.0000  26.0000 Du        
    285 ****         4.5000  21.0000  26.2500 Du        
    286 ****         4.5000  21.0000  26.5000 Du        
    287 ****         4.5000  21.0000  26.7500 Du        
    288 ****         4.5000  21.0000  27.0000 Du        
    289 ****         4.5000  21.0000  27.2500 Du        
    290 ****         4.5000  21.0000  27.5000 Du        
    291 ****         4.5000  21.2500  25.7500 Du        
    292 ****         4.5000  21.2500  26.0000 Du        
    293 ****         4.5000  21.2500  26.2500 Du        
    294 ****         4.5000  21.2500  26.5000 Du        
    295 ****         4.5000  21.2500  26.7500 Du        
    296 ****         4.5000  21.2500  27.0000 Du        
    297 ****         4.5000  21.2500  27.2500 Du        
    298 ****         4.5000  21.2500  27.5000 Du        
    299 ****         4.5000  21.5000  26.2500 Du        
    300 ****         4.5000  21.5000  26.5000 Du        
    301 ****         4.5000  21.5000  26.7500 Du        
    302 ****         4.5000  21.5000  27.0000 Du        
    303 ****         4.5000  21.5000  27.2500 Du        
    304 ****         4.5000  21.5000  27.5000 Du        
    305 ****         4.5000  21.7500  26.7500 Du        
    306 ****         4.5000  21.7500  27.0000 Du        
    307 ****         4.5000  21.7500  27.2500 Du        
    308 ****         4.5000  21.7500  27.5000 Du        
    309 ****         4.5000  22.0000  27.2500 Du        
    310 ****         4.5000  26.5000  26.7500 Du        
    311 ****         4.5000  26.5000  27.0000 Du        
    312 ****         4.5000  26.7500  26.2500 Du        
    313 ****         4.5000  26.7500  26.5000 Du        
    314 ****         4.5000  26.7500  26.7500 Du        
    315 ****         4.5000  26.7500  27.0000 Du        
    316 ****         4.5000  26.7500  27.2500 Du        
    317 ****         4.5000  27.0000  26.0000 Du        
    318 ****         4.5000  27.0000  26.2500 Du        
    319 ****         4.5000  27.0000  26.5000 Du        
    320 ****         4.5000  27.0000  26.7500 Du        
    321 ****         4.5000  27.0000  27.0000 Du        
    322 ****         4.5000  27.0000  27.2500 Du        
    323 ****         4.5000  27.2500  25.7500 Du        
    324 ****         4.5000  27.2500  26.0000 Du        
    325 ****         4.5000  27.2500  26.2500 Du        
    326 ****         4.5000  27.2500  26.5000 Du        
    327 ****         4.5000  27.2500  26.7500 Du        
    328 ****         4.5000  27.2500  27.0000 Du        
    329 ****         4.5000  27.2500  27.2500 Du        
    330 ****         4.5000  27.5000  25.7500 Du        
    331 ****         4.5000  27.5000  26.0000 Du        
    332 ****         4.5000  27.5000  26.2500 Du        
    333 ****         4.5000  27.5000  26.5000 Du        
    334 ****         4.5000  27.5000  26.7500 Du        
    335 ****         4.5000  27.5000  27.0000 Du        
    336 ****         4.5000  27.7500  25.5000 Du        
    337 ****         4.5000  27.7500  25.7500 Du        
    338 ****         4.5000  27.7500  26.0000 Du        
    339 ****         4.5000  27.7500  26.2500 Du        
    340 ****         4.5000  27.7500  26.5000 Du        
    341 ****         4.5000  27.7500  26.7500 Du        
    342 ****         4.5000  27.7500  27.0000 Du        
    343 ****         4.5000  28.0000  25.2500 Du        
    344 ****         4.5000  28.0000  25.5000 Du        
    345 ****         4.5000  28.0000  25.7500 Du        
    346 ****         4.5000  28.0000  26.0000 Du        
    347 ****         4.5000  28.0000  26.2500 Du        
    348 ****         4.5000  28.0000  26.5000 Du        
    349 ****         4.5000  28.0000  26.7500 Du        
    350 ****         4.5000  28.0000  27.0000 Du        
    351 ****         4.5000  28.2500  25.2500 Du        
    352 ****         4.5000  28.2500  25.5000 Du        
    353 ****         4.5000  28.2500  25.7500 Du        
    354 ****         4.5000  28.2500  26.0000 Du        
    355 ****         4.5000  28.2500  26.2500 Du        
    356 ****         4.5000  28.2500  26.5000 Du        
    357 ****         4.5000  28.2500  26.7500 Du        
    358 ****         4.5000  28.2500  27.0000 Du        
    359 ****         4.5000  28.5000  25.2500 Du        
    360 ****         4.5000  28.5000  25.5000 Du        
    361 ****         4.5000  28.5000  25.7500 Du        
    362 ****         4.5000  28.5000  26.0000 Du        
    363 ****         4.5000  28.5000  26.2500 Du        
    364 ****         4.5000  28.5000  26.5000 Du        
    365 ****         4.5000  28.5000  26.7500 Du        
    366 ****         4.5000  28.5000  27.0000 Du        
    367 ****         4.5000  28.7500  25.2500 Du        
    368 ****         4.5000  28.7500  25.5000 Du        
    369 ****         4.5000  28.7500  25.7500 Du        
    370 ****         4.5000  28.7500  26.0000 Du        
    371 ****         4.5000  28.7500  26.2500 Du        
    372 ****         4.5000  28.7500  26.5000 Du        
    373 ****         4.5000  28.7500  26.7500 Du        
    374 ****         4.5000  28.7500  27.0000 Du        
    375 ****         4.5000  29.0000  25.7500 Du        
    376 ****         4.5000  29.0000  26.0000 Du        
    377 ****         4.5000  29.0000  26.2500 Du        
    378 ****         4.5000  29.0000  26.5000 Du        
    379 ****         4.5000  29.0000  26.7500 Du        
    380 ****         4.7500  18.5000  27.0000 Du        
    381 ****         4.7500  18.7500  26.7500 Du        
    382 ****         4.7500  18.7500  27.0000 Du        
    383 ****         4.7500  18.7500  27.2500 Du        
    384 ****         4.7500  19.0000  26.5000 Du        
    385 ****         4.7500  19.0000  26.7500 Du        
    386 ****         4.7500  19.0000  27.0000 Du        
    387 ****         4.7500  19.0000  27.2500 Du        
    388 ****         4.7500  19.2500  26.5000 Du        
    389 ****         4.7500  19.2500  26.7500 Du        
    390 ****         4.7500  19.2500  27.0000 Du        
    391 ****         4.7500  19.2500  27.2500 Du        
    392 ****         4.7500  19.2500  27.5000 Du        
    393 ****         4.7500  19.5000  26.2500 Du        
    394 ****         4.7500  19.5000  26.5000 Du        
    395 ****         4.7500  19.5000  26.7500 Du        
    396 ****         4.7500  19.5000  27.0000 Du        
    397 ****         4.7500  19.5000  27.2500 Du        
    398 ****         4.7500  19.5000  27.5000 Du        
    399 ****         4.7500  19.7500  26.0000 Du        
    400 ****         4.7500  19.7500  26.2500 Du        
    401 ****         4.7500  19.7500  26.5000 Du        
    402 ****         4.7500  19.7500  26.7500 Du        
    403 ****         4.7500  19.7500  27.0000 Du        
    404 ****         4.7500  19.7500  27.2500 Du        
    405 ****         4.7500  19.7500  27.5000 Du        
    406 ****         4.7500  20.0000  25.7500 Du        
    407 ****         4.7500  20.0000  26.0000 Du        
    408 ****         4.7500  20.0000  26.2500 Du        
    409 ****         4.7500  20.0000  26.5000 Du        
    410 ****         4.7500  20.0000  26.7500 Du        
    411 ****         4.7500  20.0000  27.0000 Du        
    412 ****         4.7500  20.0000  27.2500 Du        
    413 ****         4.7500  20.0000  27.5000 Du        
    414 ****         4.7500  20.2500  25.7500 Du        
    415 ****         4.7500  20.2500  26.0000 Du        
    416 ****         4.7500  20.2500  26.2500 Du        
    417 ****         4.7500  20.2500  26.5000 Du        
    418 ****         4.7500  20.2500  26.7500 Du        
    419 ****         4.7500  20.2500  27.0000 Du        
    420 ****         4.7500  20.2500  27.2500 Du        
    421 ****         4.7500  20.2500  27.5000 Du        
    422 ****         4.7500  20.5000  25.5000 Du        
    423 ****         4.7500  20.5000  25.7500 Du        
    424 ****         4.7500  20.5000  26.0000 Du        
    425 ****         4.7500  20.5000  26.2500 Du        
    426 ****         4.7500  20.5000  26.5000 Du        
    427 ****         4.7500  20.5000  26.7500 Du        
    428 ****         4.7500  20.5000  27.0000 Du        
    429 ****         4.7500  20.5000  27.2500 Du        
    430 ****         4.7500  20.5000  27.5000 Du        
    431 ****         4.7500  20.7500  25.5000 Du        
    432 ****         4.7500  20.7500  25.7500 Du        
    433 ****         4.7500  20.7500  26.0000 Du        
    434 ****         4.7500  20.7500  26.2500 Du        
    435 ****         4.7500  20.7500  26.5000 Du        
    436 ****         4.7500  20.7500  26.7500 Du        
    437 ****         4.7500  20.7500  27.0000 Du        
    438 ****         4.7500  20.7500  27.2500 Du        
    439 ****         4.7500  20.7500  27.5000 Du        
    440 ****         4.7500  21.0000  25.2500 Du        
    441 ****         4.7500  21.0000  25.5000 Du        
    442 ****         4.7500  21.0000  25.7500 Du        
    443 ****         4.7500  21.0000  26.0000 Du        
    444 ****         4.7500  21.0000  26.2500 Du        
    445 ****         4.7500  21.0000  26.5000 Du        
    446 ****         4.7500  21.0000  26.7500 Du        
    447 ****         4.7500  21.0000  27.0000 Du        
    448 ****         4.7500  21.0000  27.2500 Du        
    449 ****         4.7500  21.0000  27.5000 Du        
    450 ****         4.7500  21.2500  25.5000 Du        
    451 ****         4.7500  21.2500  25.7500 Du        
    452 ****         4.7500  21.2500  26.0000 Du        
    453 ****         4.7500  21.2500  26.2500 Du        
    454 ****         4.7500  21.2500  26.5000 Du        
    455 ****         4.7500  21.2500  26.7500 Du        
    456 ****         4.7500  21.2500  27.0000 Du        
    457 ****         4.7500  21.2500  27.2500 Du        
    458 ****         4.7500  21.2500  27.5000 Du        
    459 ****         4.7500  21.2500  27.7500 Du        
    460 ****         4.7500  21.5000  25.7500 Du        
    461 ****         4.7500  21.5000  26.0000 Du        
    462 ****         4.7500  21.5000  26.2500 Du        
    463 ****         4.7500  21.5000  26.5000 Du        
    464 ****         4.7500  21.5000  26.7500 Du        
    465 ****         4.7500  21.5000  27.0000 Du        
    466 ****         4.7500  21.5000  27.2500 Du        
    467 ****         4.7500  21.5000  27.5000 Du        
    468 ****         4.7500  21.5000  27.7500 Du        
    469 ****         4.7500  21.7500  26.2500 Du        
    470 ****         4.7500  21.7500  26.5000 Du        
    471 ****         4.7500  21.7500  26.7500 Du        
    472 ****         4.7500  21.7500  27.0000 Du        
    473 ****         4.7500  21.7500  27.2500 Du        
    474 ****         4.7500  21.7500  27.5000 Du        
    475 ****         4.7500  21.7500  27.7500 Du        
    476 ****         4.7500  22.0000  26.7500 Du        
    477 ****         4.7500  22.0000  27.0000 Du        
    478 ****         4.7500  22.0000  27.2500 Du        
    479 ****         4.7500  22.0000  27.5000 Du        
    480 ****         4.7500  22.0000  27.7500 Du        
    481 ****         4.7500  22.2500  27.2500 Du        
    482 ****         4.7500  22.2500  27.5000 Du        
    483 ****         4.7500  26.2500  26.7500 Du        
    484 ****         4.7500  26.2500  27.0000 Du        
    485 ****         4.7500  26.2500  27.2500 Du        
    486 ****         4.7500  26.5000  26.2500 Du        
    487 ****         4.7500  26.5000  26.5000 Du        
    488 ****         4.7500  26.5000  26.7500 Du        
    489 ****         4.7500  26.5000  27.0000 Du        
    490 ****         4.7500  26.5000  27.2500 Du        
    491 ****         4.7500  26.7500  26.0000 Du        
    492 ****         4.7500  26.7500  26.2500 Du        
    493 ****         4.7500  26.7500  26.5000 Du        
    494 ****         4.7500  26.7500  26.7500 Du        
    495 ****         4.7500  26.7500  27.0000 Du        
    496 ****         4.7500  26.7500  27.2500 Du        
    497 ****         4.7500  27.0000  25.7500 Du        
    498 ****         4.7500  27.0000  26.0000 Du        
    499 ****         4.7500  27.0000  26.2500 Du        
    500 ****         4.7500  27.0000  26.5000 Du        
    501 ****         4.7500  27.0000  26.7500 Du        
    502 ****         4.7500  27.0000  27.0000 Du        
    503 ****         4.7500  27.0000  27.2500 Du        
    504 ****         4.7500  27.2500  25.7500 Du        
    505 ****         4.7500  27.2500  26.0000 Du        
    506 ****         4.7500  27.2500  26.2500 Du        
    507 ****         4.7500  27.2500  26.5000 Du        
    508 ****         4.7500  27.2500  26.7500 Du        
    509 ****         4.7500  27.2500  27.0000 Du        
    510 ****         4.7500  27.2500  27.2500 Du        
    511 ****         4.7500  27.2500  27.5000 Du        
    512 ****         4.7500  27.5000  25.5000 Du        
    513 ****         4.7500  27.5000  25.7500 Du        
    514 ****         4.7500  27.5000  26.0000 Du        
    515 ****         4.7500  27.5000  26.2500 Du        
    516 ****         4.7500  27.5000  26.5000 Du        
    517 ****         4.7500  27.5000  26.7500 Du        
    518 ****         4.7500  27.5000  27.0000 Du        
    519 ****         4.7500  27.5000  27.2500 Du        
    520 ****         4.7500  27.5000  27.5000 Du        
    521 ****         4.7500  27.7500  25.5000 Du        
    522 ****         4.7500  27.7500  25.7500 Du        
    523 ****         4.7500  27.7500  26.0000 Du        
    524 ****         4.7500  27.7500  26.2500 Du        
    525 ****         4.7500  27.7500  26.5000 Du        
    526 ****         4.7500  27.7500  26.7500 Du        
    527 ****         4.7500  27.7500  27.0000 Du        
    528 ****         4.7500  27.7500  27.2500 Du        
    529 ****         4.7500  27.7500  27.5000 Du        
    530 ****         4.7500  28.0000  25.2500 Du        
    531 ****         4.7500  28.0000  25.5000 Du        
    532 ****         4.7500  28.0000  25.7500 Du        
    533 ****         4.7500  28.0000  26.0000 Du        
    534 ****         4.7500  28.0000  26.2500 Du        
    535 ****         4.7500  28.0000  26.5000 Du        
    536 ****         4.7500  28.0000  26.7500 Du        
    537 ****         4.7500  28.0000  27.0000 Du        
    538 ****         4.7500  28.0000  27.2500 Du        
    539 ****         4.7500  28.0000  27.5000 Du        
    540 ****         4.7500  28.2500  25.0000 Du        
    541 ****         4.7500  28.2500  25.2500 Du        
    542 ****         4.7500  28.2500  25.5000 Du        
    543 ****         4.7500  28.2500  25.7500 Du        
    544 ****         4.7500  28.2500  26.0000 Du        
    545 ****         4.7500  28.2500  26.2500 Du        
    546 ****         4.7500  28.2500  26.5000 Du        
    547 ****         4.7500  28.2500  26.7500 Du        
    548 ****         4.7500  28.2500  27.0000 Du        
    549 ****         4.7500  28.2500  27.2500 Du        
    550 ****         4.7500  28.2500  27.5000 Du        
    551 ****         4.7500  28.5000  25.0000 Du        
    552 ****         4.7500  28.5000  25.2500 Du        
    553 ****         4.7500  28.5000  25.5000 Du        
    554 ****         4.7500  28.5000  25.7500 Du        
    555 ****         4.7500  28.5000  26.0000 Du        
    556 ****         4.7500  28.5000  26.2500 Du        
    557 ****         4.7500  28.5000  26.5000 Du        
    558 ****         4.7500  28.5000  26.7500 Du        
    559 ****         4.7500  28.5000  27.0000 Du        
    560 ****         4.7500  28.5000  27.2500 Du        
    561 ****         4.7500  28.5000  27.5000 Du        
    562 ****         4.7500  28.7500  25.2500 Du        
    563 ****         4.7500  28.7500  25.5000 Du        
    564 ****         4.7500  28.7500  25.7500 Du        
    565 ****         4.7500  28.7500  26.0000 Du        
    566 ****         4.7500  28.7500  26.2500 Du        
    567 ****         4.7500  28.7500  26.5000 Du        
    568 ****         4.7500  28.7500  26.7500 Du        
    569 ****         4.7500  28.7500  27.0000 Du        
    570 ****         4.7500  28.7500  27.2500 Du        
    571 ****         4.7500  28.7500  27.5000 Du        
    572 ****         4.7500  28.7500  27.7500 Du        
    573 ****         4.7500  29.0000  25.7500 Du        
    574 ****         4.7500  29.0000  26.0000 Du        
    575 ****         4.7500  29.0000  26.2500 Du        
    576 ****         4.7500  29.0000  26.5000 Du        
    577 ****         4.7500  29.0000  26.7500 Du        
    578 ****         4.7500  29.0000  27.0000 Du        
    579 ****         4.7500  29.0000  27.2500 Du        
    580 ****         4.7500  29.0000  27.5000 Du        
    581 ****         4.7500  29.0000  27.7500 Du        
    582 ****         4.7500  29.2500  26.2500 Du        
    583 ****         4.7500  29.2500  26.5000 Du        
    584 ****         4.7500  29.2500  26.7500 Du        
    585 ****         4.7500  29.2500  27.0000 Du        
    586 ****         4.7500  29.2500  27.2500 Du        
    587 ****         4.7500  29.2500  27.5000 Du        
    588 ****         5.0000  18.5000  27.0000 Du        
    589 ****         5.0000  18.5000  27.2500 Du        
    590 ****         5.0000  18.7500  26.7500 Du        
    591 ****         5.0000  18.7500  27.0000 Du        
    592 ****         5.0000  18.7500  27.2500 Du        
    593 ****         5.0000  19.0000  26.5000 Du        
    594 ****         5.0000  19.0000  26.7500 Du        
    595 ****         5.0000  19.0000  27.0000 Du        
    596 ****         5.0000  19.0000  27.2500 Du        
    597 ****         5.0000  19.0000  27.5000 Du        
    598 ****         5.0000  19.2500  26.5000 Du        
    599 ****         5.0000  19.2500  26.7500 Du        
    600 ****         5.0000  19.2500  27.0000 Du        
    601 ****         5.0000  19.2500  27.2500 Du        
    602 ****         5.0000  19.2500  27.5000 Du        
    603 ****         5.0000  19.5000  26.2500 Du        
    604 ****         5.0000  19.5000  26.5000 Du        
    605 ****         5.0000  19.5000  26.7500 Du        
    606 ****         5.0000  19.5000  27.0000 Du        
    607 ****         5.0000  19.5000  27.2500 Du        
    608 ****         5.0000  19.5000  27.5000 Du        
    609 ****         5.0000  19.7500  26.0000 Du        
    610 ****         5.0000  19.7500  26.2500 Du        
    611 ****         5.0000  19.7500  26.5000 Du        
    612 ****         5.0000  19.7500  26.7500 Du        
    613 ****         5.0000  19.7500  27.0000 Du        
    614 ****         5.0000  19.7500  27.2500 Du        
    615 ****         5.0000  19.7500  27.5000 Du        
    616 ****         5.0000  20.0000  25.7500 Du        
    617 ****         5.0000  20.0000  26.0000 Du        
    618 ****         5.0000  20.0000  26.2500 Du        
    619 ****         5.0000  20.0000  26.5000 Du        
    620 ****         5.0000  20.0000  26.7500 Du        
    621 ****         5.0000  20.0000  27.0000 Du        
    622 ****         5.0000  20.0000  27.2500 Du        
    623 ****         5.0000  20.0000  27.5000 Du        
    624 ****         5.0000  20.0000  27.7500 Du        
    625 ****         5.0000  20.2500  25.7500 Du        
    626 ****         5.0000  20.2500  26.0000 Du        
    627 ****         5.0000  20.2500  26.2500 Du        
    628 ****         5.0000  20.2500  26.5000 Du        
    629 ****         5.0000  20.2500  26.7500 Du        
    630 ****         5.0000  20.2500  27.0000 Du        
    631 ****         5.0000  20.2500  27.2500 Du        
    632 ****         5.0000  20.2500  27.5000 Du        
    633 ****         5.0000  20.2500  27.7500 Du        
    634 ****         5.0000  20.5000  25.5000 Du        
    635 ****         5.0000  20.5000  25.7500 Du        
    636 ****         5.0000  20.5000  26.0000 Du        
    637 ****         5.0000  20.5000  26.2500 Du        
    638 ****         5.0000  20.5000  26.5000 Du        
    639 ****         5.0000  20.5000  26.7500 Du        
    640 ****         5.0000  20.5000  27.0000 Du        
    641 ****         5.0000  20.5000  27.2500 Du        
    642 ****         5.0000  20.5000  27.5000 Du        
    643 ****         5.0000  20.5000  27.7500 Du        
    644 ****         5.0000  20.7500  25.2500 Du        
    645 ****         5.0000  20.7500  25.5000 Du        
    646 ****         5.0000  20.7500  25.7500 Du        
    647 ****         5.0000  20.7500  26.0000 Du        
    648 ****         5.0000  20.7500  26.2500 Du        
    649 ****         5.0000  20.7500  26.5000 Du        
    650 ****         5.0000  20.7500  26.7500 Du        
    651 ****         5.0000  20.7500  27.0000 Du        
    652 ****         5.0000  20.7500  27.2500 Du        
    653 ****         5.0000  20.7500  27.5000 Du        
    654 ****         5.0000  20.7500  27.7500 Du        
    655 ****         5.0000  21.0000  25.2500 Du        
    656 ****         5.0000  21.0000  25.5000 Du        
    657 ****         5.0000  21.0000  25.7500 Du        
    658 ****         5.0000  21.0000  26.0000 Du        
    659 ****         5.0000  21.0000  26.2500 Du        
    660 ****         5.0000  21.0000  26.5000 Du        
    661 ****         5.0000  21.0000  26.7500 Du        
    662 ****         5.0000  21.0000  27.0000 Du        
    663 ****         5.0000  21.0000  27.2500 Du        
    664 ****         5.0000  21.0000  27.5000 Du        
    665 ****         5.0000  21.0000  27.7500 Du        
    666 ****         5.0000  21.2500  25.2500 Du        
    667 ****         5.0000  21.2500  25.5000 Du        
    668 ****         5.0000  21.2500  25.7500 Du        
    669 ****         5.0000  21.2500  26.0000 Du        
    670 ****         5.0000  21.2500  26.2500 Du        
    671 ****         5.0000  21.2500  26.5000 Du        
    672 ****         5.0000  21.2500  26.7500 Du        
    673 ****         5.0000  21.2500  27.0000 Du        
    674 ****         5.0000  21.2500  27.2500 Du        
    675 ****         5.0000  21.2500  27.5000 Du        
    676 ****         5.0000  21.2500  27.7500 Du        
    677 ****         5.0000  21.5000  25.5000 Du        
    678 ****         5.0000  21.5000  25.7500 Du        
    679 ****         5.0000  21.5000  26.0000 Du        
    680 ****         5.0000  21.5000  26.2500 Du        
    681 ****         5.0000  21.5000  26.5000 Du        
    682 ****         5.0000  21.5000  26.7500 Du        
    683 ****         5.0000  21.5000  27.0000 Du        
    684 ****         5.0000  21.5000  27.2500 Du        
    685 ****         5.0000  21.5000  27.5000 Du        
    686 ****         5.0000  21.5000  27.7500 Du        
    687 ****         5.0000  21.7500  25.7500 Du        
    688 ****         5.0000  21.7500  26.0000 Du        
    689 ****         5.0000  21.7500  26.2500 Du        
    690 ****         5.0000  21.7500  26.5000 Du        
    691 ****         5.0000  21.7500  26.7500 Du        
    692 ****         5.0000  21.7500  27.0000 Du        
    693 ****         5.0000  21.7500  27.2500 Du        
    694 ****         5.0000  21.7500  27.5000 Du        
    695 ****         5.0000  21.7500  27.7500 Du        
    696 ****         5.0000  22.0000  26.5000 Du        
    697 ****         5.0000  22.0000  26.7500 Du        
    698 ****         5.0000  22.0000  27.0000 Du        
    699 ****         5.0000  22.0000  27.2500 Du        
    700 ****         5.0000  22.0000  27.5000 Du        
    701 ****         5.0000  22.0000  27.7500 Du        
    702 ****         5.0000  22.2500  26.7500 Du        
    703 ****         5.0000  22.2500  27.0000 Du        
    704 ****         5.0000  22.2500  27.2500 Du        
    705 ****         5.0000  22.2500  27.5000 Du        
    706 ****         5.0000  22.2500  27.7500 Du        
    707 ****         5.0000  22.5000  27.2500 Du        
    708 ****         5.0000  22.5000  27.5000 Du        
    709 ****         5.0000  26.0000  26.7500 Du        
    710 ****         5.0000  26.0000  27.0000 Du        
    711 ****         5.0000  26.0000  27.2500 Du        
    712 ****         5.0000  26.2500  26.5000 Du        
    713 ****         5.0000  26.2500  26.7500 Du        
    714 ****         5.0000  26.2500  27.0000 Du        
    715 ****         5.0000  26.2500  27.2500 Du        
    716 ****         5.0000  26.5000  26.0000 Du        
    717 ****         5.0000  26.5000  26.2500 Du        
    718 ****         5.0000  26.5000  26.5000 Du        
    719 ****         5.0000  26.5000  26.7500 Du        
    720 ****         5.0000  26.5000  27.0000 Du        
    721 ****         5.0000  26.5000  27.2500 Du        
    722 ****         5.0000  26.5000  27.5000 Du        
    723 ****         5.0000  26.7500  25.7500 Du        
    724 ****         5.0000  26.7500  26.0000 Du        
    725 ****         5.0000  26.7500  26.2500 Du        
    726 ****         5.0000  26.7500  26.5000 Du        
    727 ****         5.0000  26.7500  26.7500 Du        
    728 ****         5.0000  26.7500  27.0000 Du        
    729 ****         5.0000  26.7500  27.2500 Du        
    730 ****         5.0000  26.7500  27.5000 Du        
    731 ****         5.0000  27.0000  25.7500 Du        
    732 ****         5.0000  27.0000  26.0000 Du        
    733 ****         5.0000  27.0000  26.2500 Du        
    734 ****         5.0000  27.0000  26.5000 Du        
    735 ****         5.0000  27.0000  26.7500 Du        
    736 ****         5.0000  27.0000  27.0000 Du        
    737 ****         5.0000  27.0000  27.2500 Du        
    738 ****         5.0000  27.0000  27.5000 Du        
    739 ****         5.0000  27.2500  25.5000 Du        
    740 ****         5.0000  27.2500  25.7500 Du        
    741 ****         5.0000  27.2500  26.0000 Du        
    742 ****         5.0000  27.2500  26.2500 Du        
    743 ****         5.0000  27.2500  26.5000 Du        
    744 ****         5.0000  27.2500  26.7500 Du        
    745 ****         5.0000  27.2500  27.0000 Du        
    746 ****         5.0000  27.2500  27.2500 Du        
    747 ****         5.0000  27.2500  27.5000 Du        
    748 ****         5.0000  27.2500  27.7500 Du        
    749 ****         5.0000  27.5000  25.5000 Du        
    750 ****         5.0000  27.5000  25.7500 Du        
    751 ****         5.0000  27.5000  26.0000 Du        
    752 ****         5.0000  27.5000  26.2500 Du        
    753 ****         5.0000  27.5000  26.5000 Du        
    754 ****         5.0000  27.5000  26.7500 Du        
    755 ****         5.0000  27.5000  27.0000 Du        
    756 ****         5.0000  27.5000  27.2500 Du        
    757 ****         5.0000  27.5000  27.5000 Du        
    758 ****         5.0000  27.5000  27.7500 Du        
    759 ****         5.0000  27.7500  25.2500 Du        
    760 ****         5.0000  27.7500  25.5000 Du        
    761 ****         5.0000  27.7500  25.7500 Du        
    762 ****         5.0000  27.7500  26.0000 Du        
    763 ****         5.0000  27.7500  26.2500 Du        
    764 ****         5.0000  27.7500  26.5000 Du        
    765 ****         5.0000  27.7500  26.7500 Du        
    766 ****         5.0000  27.7500  27.0000 Du        
    767 ****         5.0000  27.7500  27.2500 Du        
    768 ****         5.0000  27.7500  27.5000 Du        
    769 ****         5.0000  27.7500  27.7500 Du        
    770 ****         5.0000  28.0000  25.2500 Du        
    771 ****         5.0000  28.0000  25.5000 Du        
    772 ****         5.0000  28.0000  25.7500 Du        
    773 ****         5.0000  28.0000  26.0000 Du        
    774 ****         5.0000  28.0000  26.2500 Du        
    775 ****         5.0000  28.0000  26.5000 Du        
    776 ****         5.0000  28.0000  26.7500 Du        
    777 ****         5.0000  28.0000  27.0000 Du        
    778 ****         5.0000  28.0000  27.2500 Du        
    779 ****         5.0000  28.0000  27.5000 Du        
    780 ****         5.0000  28.0000  27.7500 Du        
    781 ****         5.0000  28.2500  25.0000 Du        
    782 ****         5.0000  28.2500  25.2500 Du        
    783 ****         5.0000  28.2500  25.5000 Du        
    784 ****         5.0000  28.2500  25.7500 Du        
    785 ****         5.0000  28.2500  26.0000 Du        
    786 ****         5.0000  28.2500  26.2500 Du        
    787 ****         5.0000  28.2500  26.5000 Du        
    788 ****         5.0000  28.2500  26.7500 Du        
    789 ****         5.0000  28.2500  27.0000 Du        
    790 ****         5.0000  28.2500  27.2500 Du        
    791 ****         5.0000  28.2500  27.5000 Du        
    792 ****         5.0000  28.2500  27.7500 Du        
    793 ****         5.0000  28.2500  28.0000 Du        
    794 ****         5.0000  28.5000  25.0000 Du        
    795 ****         5.0000  28.5000  25.2500 Du        
    796 ****         5.0000  28.5000  25.5000 Du        
    797 ****         5.0000  28.5000  25.7500 Du        
    798 ****         5.0000  28.5000  26.0000 Du        
    799 ****         5.0000  28.5000  26.2500 Du        
    800 ****         5.0000  28.5000  26.5000 Du        
    801 ****         5.0000  28.5000  26.7500 Du        
    802 ****         5.0000  28.5000  27.0000 Du        
    803 ****         5.0000  28.5000  27.2500 Du        
    804 ****         5.0000  28.5000  27.5000 Du        
    805 ****         5.0000  28.5000  27.7500 Du        
    806 ****         5.0000  28.5000  28.0000 Du        
    807 ****         5.0000  28.7500  25.2500 Du        
    808 ****         5.0000  28.7500  25.5000 Du        
    809 ****         5.0000  28.7500  25.7500 Du        
    810 ****         5.0000  28.7500  26.0000 Du        
    811 ****         5.0000  28.7500  26.2500 Du        
    812 ****         5.0000  28.7500  26.5000 Du        
    813 ****         5.0000  28.7500  26.7500 Du        
    814 ****         5.0000  28.7500  27.0000 Du        
    815 ****         5.0000  28.7500  27.2500 Du        
    816 ****         5.0000  28.7500  27.5000 Du        
    817 ****         5.0000  28.7500  27.7500 Du        
    818 ****         5.0000  28.7500  28.0000 Du        
    819 ****         5.0000  29.0000  25.7500 Du        
    820 ****         5.0000  29.0000  26.0000 Du        
    821 ****         5.0000  29.0000  26.2500 Du        
    822 ****         5.0000  29.0000  26.5000 Du        
    823 ****         5.0000  29.0000  26.7500 Du        
    824 ****         5.0000  29.0000  27.0000 Du        
    825 ****         5.0000  29.0000  27.2500 Du        
    826 ****         5.0000  29.0000  27.5000 Du        
    827 ****         5.0000  29.0000  27.7500 Du        
    828 ****         5.0000  29.0000  28.0000 Du        
    829 ****         5.0000  29.0000  28.2500 Du        
    830 ****         5.0000  29.2500  26.2500 Du        
    831 ****         5.0000  29.2500  26.5000 Du        
    832 ****         5.0000  29.2500  26.7500 Du        
    833 ****         5.0000  29.2500  27.0000 Du        
    834 ****         5.0000  29.2500  27.2500 Du        
    835 ****         5.0000  29.2500  27.5000 Du        
    836 ****         5.0000  29.2500  27.7500 Du        
    837 ****         5.0000  29.2500  28.0000 Du        
    838 ****         5.0000  29.2500  28.2500 Du        
    839 ****         5.0000  29.5000  26.7500 Du        
    840 ****         5.0000  29.5000  27.0000 Du        
    841 ****         5.0000  29.5000  27.2500 Du        
    842 ****         5.0000  29.5000  27.5000 Du        
    843 ****         5.0000  29.5000  27.7500 Du        
    844 ****         5.0000  29.5000  28.0000 Du        
    845 ****         5.0000  29.5000  28.2500 Du        
    846 ****         5.0000  29.7500  28.0000 Du        
    847 ****         5.2500  18.5000  27.0000 Du        
    848 ****         5.2500  18.5000  27.2500 Du        
    849 ****         5.2500  18.7500  26.7500 Du        
    850 ****         5.2500  18.7500  27.0000 Du        
    851 ****         5.2500  18.7500  27.2500 Du        
    852 ****         5.2500  19.0000  26.7500 Du        
    853 ****         5.2500  19.0000  27.0000 Du        
    854 ****         5.2500  19.0000  27.2500 Du        
    855 ****         5.2500  19.0000  27.5000 Du        
    856 ****         5.2500  19.2500  26.5000 Du        
    857 ****         5.2500  19.2500  26.7500 Du        
    858 ****         5.2500  19.2500  27.0000 Du        
    859 ****         5.2500  19.2500  27.2500 Du        
    860 ****         5.2500  19.2500  27.5000 Du        
    861 ****         5.2500  19.2500  27.7500 Du        
    862 ****         5.2500  19.5000  26.2500 Du        
    863 ****         5.2500  19.5000  26.5000 Du        
    864 ****         5.2500  19.5000  26.7500 Du        
    865 ****         5.2500  19.5000  27.0000 Du        
    866 ****         5.2500  19.5000  27.2500 Du        
    867 ****         5.2500  19.5000  27.5000 Du        
    868 ****         5.2500  19.5000  27.7500 Du        
    869 ****         5.2500  19.7500  26.2500 Du        
    870 ****         5.2500  19.7500  26.5000 Du        
    871 ****         5.2500  19.7500  26.7500 Du        
    872 ****         5.2500  19.7500  27.0000 Du        
    873 ****         5.2500  19.7500  27.2500 Du        
    874 ****         5.2500  19.7500  27.5000 Du        
    875 ****         5.2500  19.7500  27.7500 Du        
    876 ****         5.2500  20.0000  26.0000 Du        
    877 ****         5.2500  20.0000  26.2500 Du        
    878 ****         5.2500  20.0000  26.5000 Du        
    879 ****         5.2500  20.0000  26.7500 Du        
    880 ****         5.2500  20.0000  27.0000 Du        
    881 ****         5.2500  20.0000  27.2500 Du        
    882 ****         5.2500  20.0000  27.5000 Du        
    883 ****         5.2500  20.0000  27.7500 Du        
    884 ****         5.2500  20.2500  25.5000 Du        
    885 ****         5.2500  20.2500  25.7500 Du        
    886 ****         5.2500  20.2500  26.0000 Du        
    887 ****         5.2500  20.2500  26.2500 Du        
    888 ****         5.2500  20.2500  26.5000 Du        
    889 ****         5.2500  20.2500  26.7500 Du        
    890 ****         5.2500  20.2500  27.0000 Du        
    891 ****         5.2500  20.2500  27.2500 Du        
    892 ****         5.2500  20.2500  27.5000 Du        
    893 ****         5.2500  20.2500  27.7500 Du        
    894 ****         5.2500  20.5000  25.2500 Du        
    895 ****         5.2500  20.5000  25.5000 Du        
    896 ****         5.2500  20.5000  25.7500 Du        
    897 ****         5.2500  20.5000  26.0000 Du        
    898 ****         5.2500  20.5000  26.2500 Du        
    899 ****         5.2500  20.5000  26.5000 Du        
    900 ****         5.2500  20.5000  26.7500 Du        
    901 ****         5.2500  20.5000  27.0000 Du        
    902 ****         5.2500  20.5000  27.2500 Du        
    903 ****         5.2500  20.5000  27.5000 Du        
    904 ****         5.2500  20.5000  27.7500 Du        
    905 ****         5.2500  20.7500  25.2500 Du        
    906 ****         5.2500  20.7500  25.5000 Du        
    907 ****         5.2500  20.7500  25.7500 Du        
    908 ****         5.2500  20.7500  26.0000 Du        
    909 ****         5.2500  20.7500  26.2500 Du        
    910 ****         5.2500  20.7500  26.5000 Du        
    911 ****         5.2500  20.7500  26.7500 Du        
    912 ****         5.2500  20.7500  27.0000 Du        
    913 ****         5.2500  20.7500  27.2500 Du        
    914 ****         5.2500  20.7500  27.5000 Du        
    915 ****         5.2500  20.7500  27.7500 Du        
    916 ****         5.2500  21.0000  25.2500 Du        
    917 ****         5.2500  21.0000  25.5000 Du        
    918 ****         5.2500  21.0000  25.7500 Du        
    919 ****         5.2500  21.0000  26.0000 Du        
    920 ****         5.2500  21.0000  26.2500 Du        
    921 ****         5.2500  21.0000  26.5000 Du        
    922 ****         5.2500  21.0000  26.7500 Du        
    923 ****         5.2500  21.0000  27.0000 Du        
    924 ****         5.2500  21.0000  27.2500 Du        
    925 ****         5.2500  21.0000  27.5000 Du        
    926 ****         5.2500  21.0000  27.7500 Du        
    927 ****         5.2500  21.2500  25.0000 Du        
    928 ****         5.2500  21.2500  25.2500 Du        
    929 ****         5.2500  21.2500  25.5000 Du        
    930 ****         5.2500  21.2500  25.7500 Du        
    931 ****         5.2500  21.2500  26.0000 Du        
    932 ****         5.2500  21.2500  26.2500 Du        
    933 ****         5.2500  21.2500  26.5000 Du        
    934 ****         5.2500  21.2500  26.7500 Du        
    935 ****         5.2500  21.2500  27.0000 Du        
    936 ****         5.2500  21.2500  27.2500 Du        
    937 ****         5.2500  21.2500  27.5000 Du        
    938 ****         5.2500  21.2500  27.7500 Du        
    939 ****         5.2500  21.2500  28.0000 Du        
    940 ****         5.2500  21.5000  25.2500 Du        
    941 ****         5.2500  21.5000  25.5000 Du        
    942 ****         5.2500  21.5000  25.7500 Du        
    943 ****         5.2500  21.5000  26.0000 Du        
    944 ****         5.2500  21.5000  26.2500 Du        
    945 ****         5.2500  21.5000  26.5000 Du        
    946 ****         5.2500  21.5000  26.7500 Du        
    947 ****         5.2500  21.5000  27.0000 Du        
    948 ****         5.2500  21.5000  27.2500 Du        
    949 ****         5.2500  21.5000  27.5000 Du        
    950 ****         5.2500  21.5000  27.7500 Du        
    951 ****         5.2500  21.5000  28.0000 Du        
    952 ****         5.2500  21.7500  25.5000 Du        
    953 ****         5.2500  21.7500  25.7500 Du        
    954 ****         5.2500  21.7500  26.0000 Du        
    955 ****         5.2500  21.7500  26.2500 Du        
    956 ****         5.2500  21.7500  26.5000 Du        
    957 ****         5.2500  21.7500  26.7500 Du        
    958 ****         5.2500  21.7500  27.0000 Du        
    959 ****         5.2500  21.7500  27.2500 Du        
    960 ****         5.2500  21.7500  27.5000 Du        
    961 ****         5.2500  21.7500  27.7500 Du        
    962 ****         5.2500  21.7500  28.0000 Du        
    963 ****         5.2500  22.0000  26.0000 Du        
    964 ****         5.2500  22.0000  26.2500 Du        
    965 ****         5.2500  22.0000  26.5000 Du        
    966 ****         5.2500  22.0000  26.7500 Du        
    967 ****         5.2500  22.0000  27.0000 Du        
    968 ****         5.2500  22.0000  27.2500 Du        
    969 ****         5.2500  22.0000  27.5000 Du        
    970 ****         5.2500  22.0000  27.7500 Du        
    971 ****         5.2500  22.0000  28.0000 Du        
    972 ****         5.2500  22.2500  26.5000 Du        
    973 ****         5.2500  22.2500  26.7500 Du        
    974 ****         5.2500  22.2500  27.0000 Du        
    975 ****         5.2500  22.2500  27.2500 Du        
    976 ****         5.2500  22.2500  27.5000 Du        
    977 ****         5.2500  22.2500  27.7500 Du        
    978 ****         5.2500  22.5000  26.7500 Du        
    979 ****         5.2500  22.5000  27.0000 Du        
    980 ****         5.2500  22.5000  27.2500 Du        
    981 ****         5.2500  22.5000  27.5000 Du        
    982 ****         5.2500  22.7500  27.0000 Du        
    983 ****         5.2500  22.7500  27.2500 Du        
    984 ****         5.2500  22.7500  27.5000 Du        
    985 ****         5.2500  25.7500  26.7500 Du        
    986 ****         5.2500  25.7500  27.0000 Du        
    987 ****         5.2500  25.7500  27.2500 Du        
    988 ****         5.2500  26.0000  26.5000 Du        
    989 ****         5.2500  26.0000  26.7500 Du        
    990 ****         5.2500  26.0000  27.0000 Du        
    991 ****         5.2500  26.0000  27.2500 Du        
    992 ****         5.2500  26.2500  26.2500 Du        
    993 ****         5.2500  26.2500  26.5000 Du        
    994 ****         5.2500  26.2500  26.7500 Du        
    995 ****         5.2500  26.2500  27.0000 Du        
    996 ****         5.2500  26.2500  27.2500 Du        
    997 ****         5.2500  26.2500  27.5000 Du        
    998 ****         5.2500  26.5000  25.7500 Du        
    999 ****         5.2500  26.5000  26.0000 Du        
   1000 ****         5.2500  26.5000  26.2500 Du        
   1001 ****         5.2500  26.5000  26.5000 Du        
   1002 ****         5.2500  26.5000  26.7500 Du        
   1003 ****         5.2500  26.5000  27.0000 Du        
   1004 ****         5.2500  26.5000  27.2500 Du        
   1005 ****         5.2500  26.5000  27.5000 Du        
   1006 ****         5.2500  26.7500  25.7500 Du        
   1007 ****         5.2500  26.7500  26.0000 Du        
   1008 ****         5.2500  26.7500  26.2500 Du        
   1009 ****         5.2500  26.7500  26.5000 Du        
   1010 ****         5.2500  26.7500  26.7500 Du        
   1011 ****         5.2500  26.7500  27.0000 Du        
   1012 ****         5.2500  26.7500  27.2500 Du        
   1013 ****         5.2500  26.7500  27.5000 Du        
   1014 ****         5.2500  26.7500  27.7500 Du        
   1015 ****         5.2500  27.0000  25.5000 Du        
   1016 ****         5.2500  27.0000  25.7500 Du        
   1017 ****         5.2500  27.0000  26.0000 Du        
   1018 ****         5.2500  27.0000  26.2500 Du        
   1019 ****         5.2500  27.0000  26.5000 Du        
   1020 ****         5.2500  27.0000  26.7500 Du        
   1021 ****         5.2500  27.0000  27.0000 Du        
   1022 ****         5.2500  27.0000  27.2500 Du        
   1023 ****         5.2500  27.0000  27.5000 Du        
   1024 ****         5.2500  27.0000  27.7500 Du        
   1025 ****         5.2500  27.2500  25.5000 Du        
   1026 ****         5.2500  27.2500  25.7500 Du        
   1027 ****         5.2500  27.2500  26.0000 Du        
   1028 ****         5.2500  27.2500  26.2500 Du        
   1029 ****         5.2500  27.2500  26.5000 Du        
   1030 ****         5.2500  27.2500  26.7500 Du        
   1031 ****         5.2500  27.2500  27.0000 Du        
   1032 ****         5.2500  27.2500  27.2500 Du        
   1033 ****         5.2500  27.2500  27.5000 Du        
   1034 ****         5.2500  27.2500  27.7500 Du        
   1035 ****         5.2500  27.5000  25.2500 Du        
   1036 ****         5.2500  27.5000  25.5000 Du        
   1037 ****         5.2500  27.5000  25.7500 Du        
   1038 ****         5.2500  27.5000  26.0000 Du        
   1039 ****         5.2500  27.5000  26.2500 Du        
   1040 ****         5.2500  27.5000  26.5000 Du        
   1041 ****         5.2500  27.5000  26.7500 Du        
   1042 ****         5.2500  27.5000  27.0000 Du        
   1043 ****         5.2500  27.5000  27.2500 Du        
   1044 ****         5.2500  27.5000  27.5000 Du        
   1045 ****         5.2500  27.5000  27.7500 Du        
   1046 ****         5.2500  27.5000  28.0000 Du        
   1047 ****         5.2500  27.7500  25.2500 Du        
   1048 ****         5.2500  27.7500  25.5000 Du        
   1049 ****         5.2500  27.7500  25.7500 Du        
   1050 ****         5.2500  27.7500  26.0000 Du        
   1051 ****         5.2500  27.7500  26.2500 Du        
   1052 ****         5.2500  27.7500  26.5000 Du        
   1053 ****         5.2500  27.7500  26.7500 Du        
   1054 ****         5.2500  27.7500  27.0000 Du        
   1055 ****         5.2500  27.7500  27.2500 Du        
   1056 ****         5.2500  27.7500  27.5000 Du        
   1057 ****         5.2500  27.7500  27.7500 Du        
   1058 ****         5.2500  27.7500  28.0000 Du        
   1059 ****         5.2500  28.0000  25.0000 Du        
   1060 ****         5.2500  28.0000  25.2500 Du        
   1061 ****         5.2500  28.0000  25.5000 Du        
   1062 ****         5.2500  28.0000  25.7500 Du        
   1063 ****         5.2500  28.0000  26.0000 Du        
   1064 ****         5.2500  28.0000  26.2500 Du        
   1065 ****         5.2500  28.0000  26.5000 Du        
   1066 ****         5.2500  28.0000  26.7500 Du        
   1067 ****         5.2500  28.0000  27.0000 Du        
   1068 ****         5.2500  28.0000  27.2500 Du        
   1069 ****         5.2500  28.0000  27.5000 Du        
   1070 ****         5.2500  28.0000  27.7500 Du        
   1071 ****         5.2500  28.0000  28.0000 Du        
   1072 ****         5.2500  28.2500  25.0000 Du        
   1073 ****         5.2500  28.2500  25.2500 Du        
   1074 ****         5.2500  28.2500  25.5000 Du        
   1075 ****         5.2500  28.2500  25.7500 Du        
   1076 ****         5.2500  28.2500  26.0000 Du        
   1077 ****         5.2500  28.2500  26.2500 Du        
   1078 ****         5.2500  28.2500  26.5000 Du        
   1079 ****         5.2500  28.2500  26.7500 Du        
   1080 ****         5.2500  28.2500  27.0000 Du        
   1081 ****         5.2500  28.2500  27.2500 Du        
   1082 ****         5.2500  28.2500  27.5000 Du        
   1083 ****         5.2500  28.2500  27.7500 Du        
   1084 ****         5.2500  28.2500  28.0000 Du        
   1085 ****         5.2500  28.2500  28.2500 Du        
   1086 ****         5.2500  28.5000  25.0000 Du        
   1087 ****         5.2500  28.5000  25.2500 Du        
   1088 ****         5.2500  28.5000  25.5000 Du        
   1089 ****         5.2500  28.5000  25.7500 Du        
   1090 ****         5.2500  28.5000  26.0000 Du        
   1091 ****         5.2500  28.5000  26.2500 Du        
   1092 ****         5.2500  28.5000  26.5000 Du        
   1093 ****         5.2500  28.5000  26.7500 Du        
   1094 ****         5.2500  28.5000  27.0000 Du        
   1095 ****         5.2500  28.5000  27.2500 Du        
   1096 ****         5.2500  28.5000  27.5000 Du        
   1097 ****         5.2500  28.5000  27.7500 Du        
   1098 ****         5.2500  28.5000  28.0000 Du        
   1099 ****         5.2500  28.5000  28.2500 Du        
   1100 ****         5.2500  28.7500  25.2500 Du        
   1101 ****         5.2500  28.7500  25.5000 Du        
   1102 ****         5.2500  28.7500  25.7500 Du        
   1103 ****         5.2500  28.7500  26.0000 Du        
   1104 ****         5.2500  28.7500  26.2500 Du        
   1105 ****         5.2500  28.7500  26.5000 Du        
   1106 ****         5.2500  28.7500  26.7500 Du        
   1107 ****         5.2500  28.7500  27.0000 Du        
   1108 ****         5.2500  28.7500  27.2500 Du        
   1109 ****         5.2500  28.7500  27.5000 Du        
   1110 ****         5.2500  28.7500  27.7500 Du        
   1111 ****         5.2500  28.7500  28.0000 Du        
   1112 ****         5.2500  28.7500  28.2500 Du        
   1113 ****         5.2500  28.7500  28.5000 Du        
   1114 ****         5.2500  29.0000  25.7500 Du        
   1115 ****         5.2500  29.0000  26.0000 Du        
   1116 ****         5.2500  29.0000  26.2500 Du        
   1117 ****         5.2500  29.0000  26.5000 Du        
   1118 ****         5.2500  29.0000  26.7500 Du        
   1119 ****         5.2500  29.0000  27.0000 Du        
   1120 ****         5.2500  29.0000  27.2500 Du        
   1121 ****         5.2500  29.0000  27.5000 Du        
   1122 ****         5.2500  29.0000  27.7500 Du        
   1123 ****         5.2500  29.0000  28.0000 Du        
   1124 ****         5.2500  29.0000  28.2500 Du        
   1125 ****         5.2500  29.0000  28.5000 Du        
   1126 ****         5.2500  29.2500  26.2500 Du        
   1127 ****         5.2500  29.2500  26.5000 Du        
   1128 ****         5.2500  29.2500  26.7500 Du        
   1129 ****         5.2500  29.2500  27.0000 Du        
   1130 ****         5.2500  29.2500  27.2500 Du        
   1131 ****         5.2500  29.2500  27.5000 Du        
   1132 ****         5.2500  29.2500  27.7500 Du        
   1133 ****         5.2500  29.2500  28.0000 Du        
   1134 ****         5.2500  29.2500  28.2500 Du        
   1135 ****         5.2500  29.2500  28.5000 Du        
   1136 ****         5.2500  29.5000  26.7500 Du        
   1137 ****         5.2500  29.5000  27.0000 Du        
   1138 ****         5.2500  29.5000  27.2500 Du        
   1139 ****         5.2500  29.5000  27.5000 Du        
   1140 ****         5.2500  29.5000  27.7500 Du        
   1141 ****         5.2500  29.5000  28.0000 Du        
   1142 ****         5.2500  29.5000  28.2500 Du        
   1143 ****         5.2500  29.5000  28.5000 Du        
   1144 ****         5.2500  29.7500  27.5000 Du        
   1145 ****         5.2500  29.7500  27.7500 Du        
   1146 ****         5.2500  29.7500  28.0000 Du        
   1147 ****         5.2500  29.7500  28.2500 Du        
   1148 ****         5.5000  18.5000  27.0000 Du        
   1149 ****         5.5000  18.5000  27.2500 Du        
   1150 ****         5.5000  18.7500  26.7500 Du        
   1151 ****         5.5000  18.7500  27.0000 Du        
   1152 ****         5.5000  18.7500  27.2500 Du        
   1153 ****         5.5000  19.0000  26.7500 Du        
   1154 ****         5.5000  19.0000  27.0000 Du        
   1155 ****         5.5000  19.0000  27.2500 Du        
   1156 ****         5.5000  19.0000  27.5000 Du        
   1157 ****         5.5000  19.2500  26.5000 Du        
   1158 ****         5.5000  19.2500  26.7500 Du        
   1159 ****         5.5000  19.2500  27.0000 Du        
   1160 ****         5.5000  19.2500  27.2500 Du        
   1161 ****         5.5000  19.2500  27.5000 Du        
   1162 ****         5.5000  19.2500  27.7500 Du        
   1163 ****         5.5000  19.5000  26.2500 Du        
   1164 ****         5.5000  19.5000  26.5000 Du        
   1165 ****         5.5000  19.5000  26.7500 Du        
   1166 ****         5.5000  19.5000  27.0000 Du        
   1167 ****         5.5000  19.5000  27.2500 Du        
   1168 ****         5.5000  19.5000  27.5000 Du        
   1169 ****         5.5000  19.5000  27.7500 Du        
   1170 ****         5.5000  19.7500  26.2500 Du        
   1171 ****         5.5000  19.7500  26.5000 Du        
   1172 ****         5.5000  19.7500  26.7500 Du        
   1173 ****         5.5000  19.7500  27.0000 Du        
   1174 ****         5.5000  19.7500  27.2500 Du        
   1175 ****         5.5000  19.7500  27.5000 Du        
   1176 ****         5.5000  19.7500  27.7500 Du        
   1177 ****         5.5000  20.0000  26.0000 Du        
   1178 ****         5.5000  20.0000  26.2500 Du        
   1179 ****         5.5000  20.0000  26.5000 Du        
   1180 ****         5.5000  20.0000  26.7500 Du        
   1181 ****         5.5000  20.0000  27.0000 Du        
   1182 ****         5.5000  20.0000  27.2500 Du        
   1183 ****         5.5000  20.0000  27.5000 Du        
   1184 ****         5.5000  20.0000  27.7500 Du        
   1185 ****         5.5000  20.2500  25.7500 Du        
   1186 ****         5.5000  20.2500  26.0000 Du        
   1187 ****         5.5000  20.2500  26.2500 Du        
   1188 ****         5.5000  20.2500  26.5000 Du        
   1189 ****         5.5000  20.2500  26.7500 Du        
   1190 ****         5.5000  20.2500  27.0000 Du        
   1191 ****         5.5000  20.2500  27.2500 Du        
   1192 ****         5.5000  20.2500  27.5000 Du        
   1193 ****         5.5000  20.2500  27.7500 Du        
   1194 ****         5.5000  20.5000  25.5000 Du        
   1195 ****         5.5000  20.5000  25.7500 Du        
   1196 ****         5.5000  20.5000  26.0000 Du        
   1197 ****         5.5000  20.5000  26.2500 Du        
   1198 ****         5.5000  20.5000  26.5000 Du        
   1199 ****         5.5000  20.5000  26.7500 Du        
   1200 ****         5.5000  20.5000  27.0000 Du        
   1201 ****         5.5000  20.5000  27.2500 Du        
   1202 ****         5.5000  20.5000  27.5000 Du        
   1203 ****         5.5000  20.5000  27.7500 Du        
   1204 ****         5.5000  20.5000  28.0000 Du        
   1205 ****         5.5000  20.7500  25.2500 Du        
   1206 ****         5.5000  20.7500  25.5000 Du        
   1207 ****         5.5000  20.7500  25.7500 Du        
   1208 ****         5.5000  20.7500  26.0000 Du        
   1209 ****         5.5000  20.7500  26.2500 Du        
   1210 ****         5.5000  20.7500  26.5000 Du        
   1211 ****         5.5000  20.7500  26.7500 Du        
   1212 ****         5.5000  20.7500  27.0000 Du        
   1213 ****         5.5000  20.7500  27.2500 Du        
   1214 ****         5.5000  20.7500  27.5000 Du        
   1215 ****         5.5000  20.7500  27.7500 Du        
   1216 ****         5.5000  20.7500  28.0000 Du        
   1217 ****         5.5000  21.0000  25.0000 Du        
   1218 ****         5.5000  21.0000  25.2500 Du        
   1219 ****         5.5000  21.0000  25.5000 Du        
   1220 ****         5.5000  21.0000  25.7500 Du        
   1221 ****         5.5000  21.0000  26.0000 Du        
   1222 ****         5.5000  21.0000  26.2500 Du        
   1223 ****         5.5000  21.0000  26.5000 Du        
   1224 ****         5.5000  21.0000  26.7500 Du        
   1225 ****         5.5000  21.0000  27.0000 Du        
   1226 ****         5.5000  21.0000  27.2500 Du        
   1227 ****         5.5000  21.0000  27.5000 Du        
   1228 ****         5.5000  21.0000  27.7500 Du        
   1229 ****         5.5000  21.0000  28.0000 Du        
   1230 ****         5.5000  21.2500  25.0000 Du        
   1231 ****         5.5000  21.2500  25.2500 Du        
   1232 ****         5.5000  21.2500  25.5000 Du        
   1233 ****         5.5000  21.2500  25.7500 Du        
   1234 ****         5.5000  21.2500  26.0000 Du        
   1235 ****         5.5000  21.2500  26.2500 Du        
   1236 ****         5.5000  21.2500  26.5000 Du        
   1237 ****         5.5000  21.2500  26.7500 Du        
   1238 ****         5.5000  21.2500  27.0000 Du        
   1239 ****         5.5000  21.2500  27.2500 Du        
   1240 ****         5.5000  21.2500  27.5000 Du        
   1241 ****         5.5000  21.2500  27.7500 Du        
   1242 ****         5.5000  21.2500  28.0000 Du        
   1243 ****         5.5000  21.5000  25.2500 Du        
   1244 ****         5.5000  21.5000  25.5000 Du        
   1245 ****         5.5000  21.5000  25.7500 Du        
   1246 ****         5.5000  21.5000  26.0000 Du        
   1247 ****         5.5000  21.5000  26.2500 Du        
   1248 ****         5.5000  21.5000  26.5000 Du        
   1249 ****         5.5000  21.5000  26.7500 Du        
   1250 ****         5.5000  21.5000  27.0000 Du        
   1251 ****         5.5000  21.5000  27.2500 Du        
   1252 ****         5.5000  21.5000  27.5000 Du        
   1253 ****         5.5000  21.5000  27.7500 Du        
   1254 ****         5.5000  21.5000  28.0000 Du        
   1255 ****         5.5000  21.7500  25.2500 Du        
   1256 ****         5.5000  21.7500  25.5000 Du        
   1257 ****         5.5000  21.7500  25.7500 Du        
   1258 ****         5.5000  21.7500  26.0000 Du        
   1259 ****         5.5000  21.7500  26.2500 Du        
   1260 ****         5.5000  21.7500  26.5000 Du        
   1261 ****         5.5000  21.7500  26.7500 Du        
   1262 ****         5.5000  21.7500  27.0000 Du        
   1263 ****         5.5000  21.7500  27.2500 Du        
   1264 ****         5.5000  21.7500  27.5000 Du        
   1265 ****         5.5000  21.7500  27.7500 Du        
   1266 ****         5.5000  21.7500  28.0000 Du        
   1267 ****         5.5000  22.0000  25.5000 Du        
   1268 ****         5.5000  22.0000  25.7500 Du        
   1269 ****         5.5000  22.0000  26.0000 Du        
   1270 ****         5.5000  22.0000  26.2500 Du        
   1271 ****         5.5000  22.0000  26.5000 Du        
   1272 ****         5.5000  22.0000  26.7500 Du        
   1273 ****         5.5000  22.0000  27.0000 Du        
   1274 ****         5.5000  22.0000  27.2500 Du        
   1275 ****         5.5000  22.0000  27.5000 Du        
   1276 ****         5.5000  22.0000  27.7500 Du        
   1277 ****         5.5000  22.2500  26.0000 Du        
   1278 ****         5.5000  22.2500  26.2500 Du        
   1279 ****         5.5000  22.2500  26.5000 Du        
   1280 ****         5.5000  22.2500  26.7500 Du        
   1281 ****         5.5000  22.2500  27.0000 Du        
   1282 ****         5.5000  22.2500  27.2500 Du        
   1283 ****         5.5000  22.2500  27.5000 Du        
   1284 ****         5.5000  22.2500  27.7500 Du        
   1285 ****         5.5000  22.5000  26.5000 Du        
   1286 ****         5.5000  22.5000  26.7500 Du        
   1287 ****         5.5000  22.5000  27.0000 Du        
   1288 ****         5.5000  22.5000  27.2500 Du        
   1289 ****         5.5000  22.5000  27.5000 Du        
   1290 ****         5.5000  22.7500  26.7500 Du        
   1291 ****         5.5000  22.7500  27.0000 Du        
   1292 ****         5.5000  22.7500  27.2500 Du        
   1293 ****         5.5000  23.0000  27.0000 Du        
   1294 ****         5.5000  25.5000  26.7500 Du        
   1295 ****         5.5000  25.5000  27.0000 Du        
   1296 ****         5.5000  25.7500  26.5000 Du        
   1297 ****         5.5000  25.7500  26.7500 Du        
   1298 ****         5.5000  25.7500  27.0000 Du        
   1299 ****         5.5000  25.7500  27.2500 Du        
   1300 ****         5.5000  26.0000  26.2500 Du        
   1301 ****         5.5000  26.0000  26.5000 Du        
   1302 ****         5.5000  26.0000  26.7500 Du        
   1303 ****         5.5000  26.0000  27.0000 Du        
   1304 ****         5.5000  26.0000  27.2500 Du        
   1305 ****         5.5000  26.2500  26.0000 Du        
   1306 ****         5.5000  26.2500  26.2500 Du        
   1307 ****         5.5000  26.2500  26.5000 Du        
   1308 ****         5.5000  26.2500  26.7500 Du        
   1309 ****         5.5000  26.2500  27.0000 Du        
   1310 ****         5.5000  26.2500  27.2500 Du        
   1311 ****         5.5000  26.2500  27.5000 Du        
   1312 ****         5.5000  26.5000  25.7500 Du        
   1313 ****         5.5000  26.5000  26.0000 Du        
   1314 ****         5.5000  26.5000  26.2500 Du        
   1315 ****         5.5000  26.5000  26.5000 Du        
   1316 ****         5.5000  26.5000  26.7500 Du        
   1317 ****         5.5000  26.5000  27.0000 Du        
   1318 ****         5.5000  26.5000  27.2500 Du        
   1319 ****         5.5000  26.5000  27.5000 Du        
   1320 ****         5.5000  26.7500  25.5000 Du        
   1321 ****         5.5000  26.7500  25.7500 Du        
   1322 ****         5.5000  26.7500  26.0000 Du        
   1323 ****         5.5000  26.7500  26.2500 Du        
   1324 ****         5.5000  26.7500  26.5000 Du        
   1325 ****         5.5000  26.7500  26.7500 Du        
   1326 ****         5.5000  26.7500  27.0000 Du        
   1327 ****         5.5000  26.7500  27.2500 Du        
   1328 ****         5.5000  26.7500  27.5000 Du        
   1329 ****         5.5000  26.7500  27.7500 Du        
   1330 ****         5.5000  27.0000  25.5000 Du        
   1331 ****         5.5000  27.0000  25.7500 Du        
   1332 ****         5.5000  27.0000  26.0000 Du        
   1333 ****         5.5000  27.0000  26.2500 Du        
   1334 ****         5.5000  27.0000  26.5000 Du        
   1335 ****         5.5000  27.0000  26.7500 Du        
   1336 ****         5.5000  27.0000  27.0000 Du        
   1337 ****         5.5000  27.0000  27.2500 Du        
   1338 ****         5.5000  27.0000  27.5000 Du        
   1339 ****         5.5000  27.0000  27.7500 Du        
   1340 ****         5.5000  27.2500  25.2500 Du        
   1341 ****         5.5000  27.2500  25.5000 Du        
   1342 ****         5.5000  27.2500  25.7500 Du        
   1343 ****         5.5000  27.2500  26.0000 Du        
   1344 ****         5.5000  27.2500  26.2500 Du        
   1345 ****         5.5000  27.2500  26.5000 Du        
   1346 ****         5.5000  27.2500  26.7500 Du        
   1347 ****         5.5000  27.2500  27.0000 Du        
   1348 ****         5.5000  27.2500  27.2500 Du        
   1349 ****         5.5000  27.2500  27.5000 Du        
   1350 ****         5.5000  27.2500  27.7500 Du        
   1351 ****         5.5000  27.2500  28.0000 Du        
   1352 ****         5.5000  27.5000  25.2500 Du        
   1353 ****         5.5000  27.5000  25.5000 Du        
   1354 ****         5.5000  27.5000  25.7500 Du        
   1355 ****         5.5000  27.5000  26.0000 Du        
   1356 ****         5.5000  27.5000  26.2500 Du        
   1357 ****         5.5000  27.5000  26.5000 Du        
   1358 ****         5.5000  27.5000  26.7500 Du        
   1359 ****         5.5000  27.5000  27.0000 Du        
   1360 ****         5.5000  27.5000  27.2500 Du        
   1361 ****         5.5000  27.5000  27.5000 Du        
   1362 ****         5.5000  27.5000  27.7500 Du        
   1363 ****         5.5000  27.5000  28.0000 Du        
   1364 ****         5.5000  27.7500  25.0000 Du        
   1365 ****         5.5000  27.7500  25.2500 Du        
   1366 ****         5.5000  27.7500  25.5000 Du        
   1367 ****         5.5000  27.7500  25.7500 Du        
   1368 ****         5.5000  27.7500  26.0000 Du        
   1369 ****         5.5000  27.7500  26.2500 Du        
   1370 ****         5.5000  27.7500  26.5000 Du        
   1371 ****         5.5000  27.7500  26.7500 Du        
   1372 ****         5.5000  27.7500  27.0000 Du        
   1373 ****         5.5000  27.7500  27.2500 Du        
   1374 ****         5.5000  27.7500  27.5000 Du        
   1375 ****         5.5000  27.7500  27.7500 Du        
   1376 ****         5.5000  27.7500  28.0000 Du        
   1377 ****         5.5000  27.7500  28.2500 Du        
   1378 ****         5.5000  28.0000  25.0000 Du        
   1379 ****         5.5000  28.0000  25.2500 Du        
   1380 ****         5.5000  28.0000  25.5000 Du        
   1381 ****         5.5000  28.0000  25.7500 Du        
   1382 ****         5.5000  28.0000  26.0000 Du        
   1383 ****         5.5000  28.0000  26.2500 Du        
   1384 ****         5.5000  28.0000  26.5000 Du        
   1385 ****         5.5000  28.0000  26.7500 Du        
   1386 ****         5.5000  28.0000  27.0000 Du        
   1387 ****         5.5000  28.0000  27.2500 Du        
   1388 ****         5.5000  28.0000  27.5000 Du        
   1389 ****         5.5000  28.0000  27.7500 Du        
   1390 ****         5.5000  28.0000  28.0000 Du        
   1391 ****         5.5000  28.0000  28.2500 Du        
   1392 ****         5.5000  28.2500  24.7500 Du        
   1393 ****         5.5000  28.2500  25.0000 Du        
   1394 ****         5.5000  28.2500  25.2500 Du        
   1395 ****         5.5000  28.2500  25.5000 Du        
   1396 ****         5.5000  28.2500  25.7500 Du        
   1397 ****         5.5000  28.2500  26.0000 Du        
   1398 ****         5.5000  28.2500  26.2500 Du        
   1399 ****         5.5000  28.2500  26.5000 Du        
   1400 ****         5.5000  28.2500  26.7500 Du        
   1401 ****         5.5000  28.2500  27.0000 Du        
   1402 ****         5.5000  28.2500  27.2500 Du        
   1403 ****         5.5000  28.2500  27.5000 Du        
   1404 ****         5.5000  28.2500  27.7500 Du        
   1405 ****         5.5000  28.2500  28.0000 Du        
   1406 ****         5.5000  28.2500  28.2500 Du        
   1407 ****         5.5000  28.2500  28.5000 Du        
   1408 ****         5.5000  28.5000  25.0000 Du        
   1409 ****         5.5000  28.5000  25.2500 Du        
   1410 ****         5.5000  28.5000  25.5000 Du        
   1411 ****         5.5000  28.5000  25.7500 Du        
   1412 ****         5.5000  28.5000  26.0000 Du        
   1413 ****         5.5000  28.5000  26.2500 Du        
   1414 ****         5.5000  28.5000  26.5000 Du        
   1415 ****         5.5000  28.5000  26.7500 Du        
   1416 ****         5.5000  28.5000  27.0000 Du        
   1417 ****         5.5000  28.5000  27.2500 Du        
   1418 ****         5.5000  28.5000  27.5000 Du        
   1419 ****         5.5000  28.5000  27.7500 Du        
   1420 ****         5.5000  28.5000  28.0000 Du        
   1421 ****         5.5000  28.5000  28.2500 Du        
   1422 ****         5.5000  28.5000  28.5000 Du        
   1423 ****         5.5000  28.7500  25.2500 Du        
   1424 ****         5.5000  28.7500  25.5000 Du        
   1425 ****         5.5000  28.7500  25.7500 Du        
   1426 ****         5.5000  28.7500  26.0000 Du        
   1427 ****         5.5000  28.7500  26.2500 Du        
   1428 ****         5.5000  28.7500  26.5000 Du        
   1429 ****         5.5000  28.7500  26.7500 Du        
   1430 ****         5.5000  28.7500  27.0000 Du        
   1431 ****         5.5000  28.7500  27.2500 Du        
   1432 ****         5.5000  28.7500  27.5000 Du        
   1433 ****         5.5000  28.7500  27.7500 Du        
   1434 ****         5.5000  28.7500  28.0000 Du        
   1435 ****         5.5000  28.7500  28.2500 Du        
   1436 ****         5.5000  28.7500  28.5000 Du        
   1437 ****         5.5000  28.7500  28.7500 Du        
   1438 ****         5.5000  29.0000  25.7500 Du        
   1439 ****         5.5000  29.0000  26.0000 Du        
   1440 ****         5.5000  29.0000  26.2500 Du        
   1441 ****         5.5000  29.0000  26.5000 Du        
   1442 ****         5.5000  29.0000  26.7500 Du        
   1443 ****         5.5000  29.0000  27.0000 Du        
   1444 ****         5.5000  29.0000  27.2500 Du        
   1445 ****         5.5000  29.0000  27.5000 Du        
   1446 ****         5.5000  29.0000  27.7500 Du        
   1447 ****         5.5000  29.0000  28.0000 Du        
   1448 ****         5.5000  29.0000  28.2500 Du        
   1449 ****         5.5000  29.0000  28.5000 Du        
   1450 ****         5.5000  29.0000  28.7500 Du        
   1451 ****         5.5000  29.2500  26.2500 Du        
   1452 ****         5.5000  29.2500  26.5000 Du        
   1453 ****         5.5000  29.2500  26.7500 Du        
   1454 ****         5.5000  29.2500  27.0000 Du        
   1455 ****         5.5000  29.2500  27.2500 Du        
   1456 ****         5.5000  29.2500  27.5000 Du        
   1457 ****         5.5000  29.2500  27.7500 Du        
   1458 ****         5.5000  29.2500  28.0000 Du        
   1459 ****         5.5000  29.2500  28.2500 Du        
   1460 ****         5.5000  29.2500  28.5000 Du        
   1461 ****         5.5000  29.2500  28.7500 Du        
   1462 ****         5.5000  29.2500  29.0000 Du        
   1463 ****         5.5000  29.5000  26.7500 Du        
   1464 ****         5.5000  29.5000  27.0000 Du        
   1465 ****         5.5000  29.5000  27.2500 Du        
   1466 ****         5.5000  29.5000  27.5000 Du        
   1467 ****         5.5000  29.5000  27.7500 Du        
   1468 ****         5.5000  29.5000  28.0000 Du        
   1469 ****         5.5000  29.5000  28.2500 Du        
   1470 ****         5.5000  29.5000  28.5000 Du        
   1471 ****         5.5000  29.5000  28.7500 Du        
   1472 ****         5.5000  29.7500  27.5000 Du        
   1473 ****         5.5000  29.7500  27.7500 Du        
   1474 ****         5.5000  29.7500  28.0000 Du        
   1475 ****         5.5000  29.7500  28.2500 Du        
   1476 ****         5.5000  29.7500  28.5000 Du        
   1477 ****         5.7500  18.5000  27.2500 Du        
   1478 ****         5.7500  18.7500  27.0000 Du        
   1479 ****         5.7500  18.7500  27.2500 Du        
   1480 ****         5.7500  18.7500  27.5000 Du        
   1481 ****         5.7500  19.0000  26.7500 Du        
   1482 ****         5.7500  19.0000  27.0000 Du        
   1483 ****         5.7500  19.0000  27.2500 Du        
   1484 ****         5.7500  19.0000  27.5000 Du        
   1485 ****         5.7500  19.0000  27.7500 Du        
   1486 ****         5.7500  19.2500  26.5000 Du        
   1487 ****         5.7500  19.2500  26.7500 Du        
   1488 ****         5.7500  19.2500  27.0000 Du        
   1489 ****         5.7500  19.2500  27.2500 Du        
   1490 ****         5.7500  19.2500  27.5000 Du        
   1491 ****         5.7500  19.2500  27.7500 Du        
   1492 ****         5.7500  19.5000  26.2500 Du        
   1493 ****         5.7500  19.5000  26.5000 Du        
   1494 ****         5.7500  19.5000  26.7500 Du        
   1495 ****         5.7500  19.5000  27.0000 Du        
   1496 ****         5.7500  19.5000  27.2500 Du        
   1497 ****         5.7500  19.5000  27.5000 Du        
   1498 ****         5.7500  19.5000  27.7500 Du        
   1499 ****         5.7500  19.5000  28.0000 Du        
   1500 ****         5.7500  19.7500  26.0000 Du        
   1501 ****         5.7500  19.7500  26.2500 Du        
   1502 ****         5.7500  19.7500  26.5000 Du        
   1503 ****         5.7500  19.7500  26.7500 Du        
   1504 ****         5.7500  19.7500  27.0000 Du        
   1505 ****         5.7500  19.7500  27.2500 Du        
   1506 ****         5.7500  19.7500  27.5000 Du        
   1507 ****         5.7500  19.7500  27.7500 Du        
   1508 ****         5.7500  19.7500  28.0000 Du        
   1509 ****         5.7500  20.0000  26.0000 Du        
   1510 ****         5.7500  20.0000  26.2500 Du        
   1511 ****         5.7500  20.0000  26.5000 Du        
   1512 ****         5.7500  20.0000  26.7500 Du        
   1513 ****         5.7500  20.0000  27.0000 Du        
   1514 ****         5.7500  20.0000  27.2500 Du        
   1515 ****         5.7500  20.0000  27.5000 Du        
   1516 ****         5.7500  20.0000  27.7500 Du        
   1517 ****         5.7500  20.0000  28.0000 Du        
   1518 ****         5.7500  20.2500  25.7500 Du        
   1519 ****         5.7500  20.2500  26.0000 Du        
   1520 ****         5.7500  20.2500  26.2500 Du        
   1521 ****         5.7500  20.2500  26.5000 Du        
   1522 ****         5.7500  20.2500  26.7500 Du        
   1523 ****         5.7500  20.2500  27.0000 Du        
   1524 ****         5.7500  20.2500  27.2500 Du        
   1525 ****         5.7500  20.2500  27.5000 Du        
   1526 ****         5.7500  20.2500  27.7500 Du        
   1527 ****         5.7500  20.2500  28.0000 Du        
   1528 ****         5.7500  20.5000  25.2500 Du        
   1529 ****         5.7500  20.5000  25.5000 Du        
   1530 ****         5.7500  20.5000  25.7500 Du        
   1531 ****         5.7500  20.5000  26.0000 Du        
   1532 ****         5.7500  20.5000  26.2500 Du        
   1533 ****         5.7500  20.5000  26.5000 Du        
   1534 ****         5.7500  20.5000  26.7500 Du        
   1535 ****         5.7500  20.5000  27.0000 Du        
   1536 ****         5.7500  20.5000  27.2500 Du        
   1537 ****         5.7500  20.5000  27.5000 Du        
   1538 ****         5.7500  20.5000  27.7500 Du        
   1539 ****         5.7500  20.5000  28.0000 Du        
   1540 ****         5.7500  20.7500  25.2500 Du        
   1541 ****         5.7500  20.7500  25.5000 Du        
   1542 ****         5.7500  20.7500  25.7500 Du        
   1543 ****         5.7500  20.7500  26.0000 Du        
   1544 ****         5.7500  20.7500  26.2500 Du        
   1545 ****         5.7500  20.7500  26.5000 Du        
   1546 ****         5.7500  20.7500  26.7500 Du        
   1547 ****         5.7500  20.7500  27.0000 Du        
   1548 ****         5.7500  20.7500  27.2500 Du        
   1549 ****         5.7500  20.7500  27.5000 Du        
   1550 ****         5.7500  20.7500  27.7500 Du        
   1551 ****         5.7500  20.7500  28.0000 Du        
   1552 ****         5.7500  21.0000  25.0000 Du        
   1553 ****         5.7500  21.0000  25.2500 Du        
   1554 ****         5.7500  21.0000  25.5000 Du        
   1555 ****         5.7500  21.0000  25.7500 Du        
   1556 ****         5.7500  21.0000  26.0000 Du        
   1557 ****         5.7500  21.0000  26.2500 Du        
   1558 ****         5.7500  21.0000  26.5000 Du        
   1559 ****         5.7500  21.0000  26.7500 Du        
   1560 ****         5.7500  21.0000  27.0000 Du        
   1561 ****         5.7500  21.0000  27.2500 Du        
   1562 ****         5.7500  21.0000  27.5000 Du        
   1563 ****         5.7500  21.0000  27.7500 Du        
   1564 ****         5.7500  21.0000  28.0000 Du        
   1565 ****         5.7500  21.2500  25.0000 Du        
   1566 ****         5.7500  21.2500  25.2500 Du        
   1567 ****         5.7500  21.2500  25.5000 Du        
   1568 ****         5.7500  21.2500  25.7500 Du        
   1569 ****         5.7500  21.2500  26.0000 Du        
   1570 ****         5.7500  21.2500  26.2500 Du        
   1571 ****         5.7500  21.2500  26.5000 Du        
   1572 ****         5.7500  21.2500  26.7500 Du        
   1573 ****         5.7500  21.2500  27.0000 Du        
   1574 ****         5.7500  21.2500  27.2500 Du        
   1575 ****         5.7500  21.2500  27.5000 Du        
   1576 ****         5.7500  21.2500  27.7500 Du        
   1577 ****         5.7500  21.2500  28.0000 Du        
   1578 ****         5.7500  21.5000  25.0000 Du        
   1579 ****         5.7500  21.5000  25.2500 Du        
   1580 ****         5.7500  21.5000  25.5000 Du        
   1581 ****         5.7500  21.5000  25.7500 Du        
   1582 ****         5.7500  21.5000  26.0000 Du        
   1583 ****         5.7500  21.5000  26.2500 Du        
   1584 ****         5.7500  21.5000  26.5000 Du        
   1585 ****         5.7500  21.5000  26.7500 Du        
   1586 ****         5.7500  21.5000  27.0000 Du        
   1587 ****         5.7500  21.5000  27.2500 Du        
   1588 ****         5.7500  21.5000  27.5000 Du        
   1589 ****         5.7500  21.5000  27.7500 Du        
   1590 ****         5.7500  21.5000  28.0000 Du        
   1591 ****         5.7500  21.7500  25.0000 Du        
   1592 ****         5.7500  21.7500  25.2500 Du        
   1593 ****         5.7500  21.7500  25.5000 Du        
   1594 ****         5.7500  21.7500  25.7500 Du        
   1595 ****         5.7500  21.7500  26.0000 Du        
   1596 ****         5.7500  21.7500  26.2500 Du        
   1597 ****         5.7500  21.7500  26.5000 Du        
   1598 ****         5.7500  21.7500  26.7500 Du        
   1599 ****         5.7500  21.7500  27.0000 Du        
   1600 ****         5.7500  21.7500  27.2500 Du        
   1601 ****         5.7500  21.7500  27.5000 Du        
   1602 ****         5.7500  21.7500  27.7500 Du        
   1603 ****         5.7500  21.7500  28.0000 Du        
   1604 ****         5.7500  22.0000  25.2500 Du        
   1605 ****         5.7500  22.0000  25.5000 Du        
   1606 ****         5.7500  22.0000  25.7500 Du        
   1607 ****         5.7500  22.0000  26.0000 Du        
   1608 ****         5.7500  22.0000  26.2500 Du        
   1609 ****         5.7500  22.0000  26.5000 Du        
   1610 ****         5.7500  22.0000  26.7500 Du        
   1611 ****         5.7500  22.0000  27.0000 Du        
   1612 ****         5.7500  22.0000  27.2500 Du        
   1613 ****         5.7500  22.0000  27.5000 Du        
   1614 ****         5.7500  22.0000  27.7500 Du        
   1615 ****         5.7500  22.2500  25.2500 Du        
   1616 ****         5.7500  22.2500  25.5000 Du        
   1617 ****         5.7500  22.2500  25.7500 Du        
   1618 ****         5.7500  22.2500  26.0000 Du        
   1619 ****         5.7500  22.2500  26.2500 Du        
   1620 ****         5.7500  22.2500  26.5000 Du        
   1621 ****         5.7500  22.2500  26.7500 Du        
   1622 ****         5.7500  22.2500  27.0000 Du        
   1623 ****         5.7500  22.2500  27.2500 Du        
   1624 ****         5.7500  22.2500  27.5000 Du        
   1625 ****         5.7500  22.5000  26.0000 Du        
   1626 ****         5.7500  22.5000  26.2500 Du        
   1627 ****         5.7500  22.5000  26.5000 Du        
   1628 ****         5.7500  22.5000  26.7500 Du        
   1629 ****         5.7500  22.5000  27.0000 Du        
   1630 ****         5.7500  22.5000  27.2500 Du        
   1631 ****         5.7500  22.5000  27.5000 Du        
   1632 ****         5.7500  22.7500  26.5000 Du        
   1633 ****         5.7500  22.7500  26.7500 Du        
   1634 ****         5.7500  22.7500  27.0000 Du        
   1635 ****         5.7500  22.7500  27.2500 Du        
   1636 ****         5.7500  23.0000  26.7500 Du        
   1637 ****         5.7500  23.0000  27.0000 Du        
   1638 ****         5.7500  23.2500  27.0000 Du        
   1639 ****         5.7500  25.5000  26.5000 Du        
   1640 ****         5.7500  25.5000  26.7500 Du        
   1641 ****         5.7500  25.5000  27.0000 Du        
   1642 ****         5.7500  25.7500  26.2500 Du        
   1643 ****         5.7500  25.7500  26.5000 Du        
   1644 ****         5.7500  25.7500  26.7500 Du        
   1645 ****         5.7500  25.7500  27.0000 Du        
   1646 ****         5.7500  26.0000  25.7500 Du        
   1647 ****         5.7500  26.0000  26.0000 Du        
   1648 ****         5.7500  26.0000  26.2500 Du        
   1649 ****         5.7500  26.0000  26.5000 Du        
   1650 ****         5.7500  26.0000  26.7500 Du        
   1651 ****         5.7500  26.0000  27.0000 Du        
   1652 ****         5.7500  26.0000  27.2500 Du        
   1653 ****         5.7500  26.2500  25.7500 Du        
   1654 ****         5.7500  26.2500  26.0000 Du        
   1655 ****         5.7500  26.2500  26.2500 Du        
   1656 ****         5.7500  26.2500  26.5000 Du        
   1657 ****         5.7500  26.2500  26.7500 Du        
   1658 ****         5.7500  26.2500  27.0000 Du        
   1659 ****         5.7500  26.2500  27.2500 Du        
   1660 ****         5.7500  26.2500  27.5000 Du        
   1661 ****         5.7500  26.5000  25.5000 Du        
   1662 ****         5.7500  26.5000  25.7500 Du        
   1663 ****         5.7500  26.5000  26.0000 Du        
   1664 ****         5.7500  26.5000  26.2500 Du        
   1665 ****         5.7500  26.5000  26.5000 Du        
   1666 ****         5.7500  26.5000  26.7500 Du        
   1667 ****         5.7500  26.5000  27.0000 Du        
   1668 ****         5.7500  26.5000  27.2500 Du        
   1669 ****         5.7500  26.5000  27.5000 Du        
   1670 ****         5.7500  26.7500  25.5000 Du        
   1671 ****         5.7500  26.7500  25.7500 Du        
   1672 ****         5.7500  26.7500  26.0000 Du        
   1673 ****         5.7500  26.7500  26.2500 Du        
   1674 ****         5.7500  26.7500  26.5000 Du        
   1675 ****         5.7500  26.7500  26.7500 Du        
   1676 ****         5.7500  26.7500  27.0000 Du        
   1677 ****         5.7500  26.7500  27.2500 Du        
   1678 ****         5.7500  26.7500  27.5000 Du        
   1679 ****         5.7500  26.7500  27.7500 Du        
   1680 ****         5.7500  27.0000  25.2500 Du        
   1681 ****         5.7500  27.0000  25.5000 Du        
   1682 ****         5.7500  27.0000  25.7500 Du        
   1683 ****         5.7500  27.0000  26.0000 Du        
   1684 ****         5.7500  27.0000  26.2500 Du        
   1685 ****         5.7500  27.0000  26.5000 Du        
   1686 ****         5.7500  27.0000  26.7500 Du        
   1687 ****         5.7500  27.0000  27.0000 Du        
   1688 ****         5.7500  27.0000  27.2500 Du        
   1689 ****         5.7500  27.0000  27.5000 Du        
   1690 ****         5.7500  27.0000  27.7500 Du        
   1691 ****         5.7500  27.0000  28.0000 Du        
   1692 ****         5.7500  27.2500  25.0000 Du        
   1693 ****         5.7500  27.2500  25.2500 Du        
   1694 ****         5.7500  27.2500  25.5000 Du        
   1695 ****         5.7500  27.2500  25.7500 Du        
   1696 ****         5.7500  27.2500  26.0000 Du        
   1697 ****         5.7500  27.2500  26.2500 Du        
   1698 ****         5.7500  27.2500  26.5000 Du        
   1699 ****         5.7500  27.2500  26.7500 Du        
   1700 ****         5.7500  27.2500  27.0000 Du        
   1701 ****         5.7500  27.2500  27.2500 Du        
   1702 ****         5.7500  27.2500  27.5000 Du        
   1703 ****         5.7500  27.2500  27.7500 Du        
   1704 ****         5.7500  27.2500  28.0000 Du        
   1705 ****         5.7500  27.5000  25.0000 Du        
   1706 ****         5.7500  27.5000  25.2500 Du        
   1707 ****         5.7500  27.5000  25.5000 Du        
   1708 ****         5.7500  27.5000  25.7500 Du        
   1709 ****         5.7500  27.5000  26.0000 Du        
   1710 ****         5.7500  27.5000  26.2500 Du        
   1711 ****         5.7500  27.5000  26.5000 Du        
   1712 ****         5.7500  27.5000  26.7500 Du        
   1713 ****         5.7500  27.5000  27.0000 Du        
   1714 ****         5.7500  27.5000  27.2500 Du        
   1715 ****         5.7500  27.5000  27.5000 Du        
   1716 ****         5.7500  27.5000  27.7500 Du        
   1717 ****         5.7500  27.5000  28.0000 Du        
   1718 ****         5.7500  27.5000  28.2500 Du        
   1719 ****         5.7500  27.7500  24.7500 Du        
   1720 ****         5.7500  27.7500  25.0000 Du        
   1721 ****         5.7500  27.7500  25.2500 Du        
   1722 ****         5.7500  27.7500  25.5000 Du        
   1723 ****         5.7500  27.7500  25.7500 Du        
   1724 ****         5.7500  27.7500  26.0000 Du        
   1725 ****         5.7500  27.7500  26.2500 Du        
   1726 ****         5.7500  27.7500  26.5000 Du        
   1727 ****         5.7500  27.7500  26.7500 Du        
   1728 ****         5.7500  27.7500  27.0000 Du        
   1729 ****         5.7500  27.7500  27.2500 Du        
   1730 ****         5.7500  27.7500  27.5000 Du        
   1731 ****         5.7500  27.7500  27.7500 Du        
   1732 ****         5.7500  27.7500  28.0000 Du        
   1733 ****         5.7500  27.7500  28.2500 Du        
   1734 ****         5.7500  28.0000  24.7500 Du        
   1735 ****         5.7500  28.0000  25.0000 Du        
   1736 ****         5.7500  28.0000  25.2500 Du        
   1737 ****         5.7500  28.0000  25.5000 Du        
   1738 ****         5.7500  28.0000  25.7500 Du        
   1739 ****         5.7500  28.0000  26.0000 Du        
   1740 ****         5.7500  28.0000  26.2500 Du        
   1741 ****         5.7500  28.0000  26.5000 Du        
   1742 ****         5.7500  28.0000  26.7500 Du        
   1743 ****         5.7500  28.0000  27.0000 Du        
   1744 ****         5.7500  28.0000  27.2500 Du        
   1745 ****         5.7500  28.0000  27.5000 Du        
   1746 ****         5.7500  28.0000  27.7500 Du        
   1747 ****         5.7500  28.0000  28.0000 Du        
   1748 ****         5.7500  28.0000  28.2500 Du        
   1749 ****         5.7500  28.0000  28.5000 Du        
   1750 ****         5.7500  28.2500  24.7500 Du        
   1751 ****         5.7500  28.2500  25.0000 Du        
   1752 ****         5.7500  28.2500  25.2500 Du        
   1753 ****         5.7500  28.2500  25.5000 Du        
   1754 ****         5.7500  28.2500  25.7500 Du        
   1755 ****         5.7500  28.2500  26.0000 Du        
   1756 ****         5.7500  28.2500  26.2500 Du        
   1757 ****         5.7500  28.2500  26.5000 Du        
   1758 ****         5.7500  28.2500  26.7500 Du        
   1759 ****         5.7500  28.2500  27.0000 Du        
   1760 ****         5.7500  28.2500  27.2500 Du        
   1761 ****         5.7500  28.2500  27.5000 Du        
   1762 ****         5.7500  28.2500  27.7500 Du        
   1763 ****         5.7500  28.2500  28.0000 Du        
   1764 ****         5.7500  28.2500  28.2500 Du        
   1765 ****         5.7500  28.2500  28.5000 Du        
   1766 ****         5.7500  28.5000  24.7500 Du        
   1767 ****         5.7500  28.5000  25.0000 Du        
   1768 ****         5.7500  28.5000  25.2500 Du        
   1769 ****         5.7500  28.5000  25.5000 Du        
   1770 ****         5.7500  28.5000  25.7500 Du        
   1771 ****         5.7500  28.5000  26.0000 Du        
   1772 ****         5.7500  28.5000  26.2500 Du        
   1773 ****         5.7500  28.5000  26.5000 Du        
   1774 ****         5.7500  28.5000  26.7500 Du        
   1775 ****         5.7500  28.5000  27.0000 Du        
   1776 ****         5.7500  28.5000  27.2500 Du        
   1777 ****         5.7500  28.5000  27.5000 Du        
   1778 ****         5.7500  28.5000  27.7500 Du        
   1779 ****         5.7500  28.5000  28.0000 Du        
   1780 ****         5.7500  28.5000  28.2500 Du        
   1781 ****         5.7500  28.5000  28.5000 Du        
   1782 ****         5.7500  28.5000  28.7500 Du        
   1783 ****         5.7500  28.7500  25.0000 Du        
   1784 ****         5.7500  28.7500  25.2500 Du        
   1785 ****         5.7500  28.7500  25.5000 Du        
   1786 ****         5.7500  28.7500  25.7500 Du        
   1787 ****         5.7500  28.7500  26.0000 Du        
   1788 ****         5.7500  28.7500  26.2500 Du        
   1789 ****         5.7500  28.7500  26.5000 Du        
   1790 ****         5.7500  28.7500  26.7500 Du        
   1791 ****         5.7500  28.7500  27.0000 Du        
   1792 ****         5.7500  28.7500  27.2500 Du        
   1793 ****         5.7500  28.7500  27.5000 Du        
   1794 ****         5.7500  28.7500  27.7500 Du        
   1795 ****         5.7500  28.7500  28.0000 Du        
   1796 ****         5.7500  28.7500  28.2500 Du        
   1797 ****         5.7500  28.7500  28.5000 Du        
   1798 ****         5.7500  28.7500  28.7500 Du        
   1799 ****         5.7500  28.7500  29.0000 Du        
   1800 ****         5.7500  29.0000  25.5000 Du        
   1801 ****         5.7500  29.0000  25.7500 Du        
   1802 ****         5.7500  29.0000  26.0000 Du        
   1803 ****         5.7500  29.0000  26.2500 Du        
   1804 ****         5.7500  29.0000  26.5000 Du        
   1805 ****         5.7500  29.0000  26.7500 Du        
   1806 ****         5.7500  29.0000  27.0000 Du        
   1807 ****         5.7500  29.0000  27.2500 Du        
   1808 ****         5.7500  29.0000  27.5000 Du        
   1809 ****         5.7500  29.0000  27.7500 Du        
   1810 ****         5.7500  29.0000  28.0000 Du        
   1811 ****         5.7500  29.0000  28.2500 Du        
   1812 ****         5.7500  29.0000  28.5000 Du        
   1813 ****         5.7500  29.0000  28.7500 Du        
   1814 ****         5.7500  29.0000  29.0000 Du        
   1815 ****         5.7500  29.2500  26.0000 Du        
   1816 ****         5.7500  29.2500  26.2500 Du        
   1817 ****         5.7500  29.2500  26.5000 Du        
   1818 ****         5.7500  29.2500  26.7500 Du        
   1819 ****         5.7500  29.2500  27.0000 Du        
   1820 ****         5.7500  29.2500  27.2500 Du        
   1821 ****         5.7500  29.2500  27.5000 Du        
   1822 ****         5.7500  29.2500  27.7500 Du        
   1823 ****         5.7500  29.2500  28.0000 Du        
   1824 ****         5.7500  29.2500  28.2500 Du        
   1825 ****         5.7500  29.2500  28.5000 Du        
   1826 ****         5.7500  29.2500  28.7500 Du        
   1827 ****         5.7500  29.2500  29.0000 Du        
   1828 ****         5.7500  29.5000  26.7500 Du        
   1829 ****         5.7500  29.5000  27.0000 Du        
   1830 ****         5.7500  29.5000  27.2500 Du        
   1831 ****         5.7500  29.5000  27.5000 Du        
   1832 ****         5.7500  29.5000  27.7500 Du        
   1833 ****         5.7500  29.5000  28.0000 Du        
   1834 ****         5.7500  29.5000  28.2500 Du        
   1835 ****         5.7500  29.5000  28.5000 Du        
   1836 ****         5.7500  29.5000  28.7500 Du        
   1837 ****         5.7500  29.5000  29.0000 Du        
   1838 ****         5.7500  29.7500  27.2500 Du        
   1839 ****         5.7500  29.7500  27.5000 Du        
   1840 ****         5.7500  29.7500  27.7500 Du        
   1841 ****         5.7500  29.7500  28.0000 Du        
   1842 ****         5.7500  29.7500  28.2500 Du        
   1843 ****         5.7500  29.7500  28.5000 Du        
   1844 ****         6.0000  18.5000  27.2500 Du        
   1845 ****         6.0000  18.7500  27.0000 Du        
   1846 ****         6.0000  18.7500  27.2500 Du        
   1847 ****         6.0000  18.7500  27.5000 Du        
   1848 ****         6.0000  18.7500  27.7500 Du        
   1849 ****         6.0000  19.0000  26.7500 Du        
   1850 ****         6.0000  19.0000  27.0000 Du        
   1851 ****         6.0000  19.0000  27.2500 Du        
   1852 ****         6.0000  19.0000  27.5000 Du        
   1853 ****         6.0000  19.0000  27.7500 Du        
   1854 ****         6.0000  19.2500  26.5000 Du        
   1855 ****         6.0000  19.2500  26.7500 Du        
   1856 ****         6.0000  19.2500  27.0000 Du        
   1857 ****         6.0000  19.2500  27.2500 Du        
   1858 ****         6.0000  19.2500  27.5000 Du        
   1859 ****         6.0000  19.2500  27.7500 Du        
   1860 ****         6.0000  19.2500  28.0000 Du        
   1861 ****         6.0000  19.5000  26.2500 Du        
   1862 ****         6.0000  19.5000  26.5000 Du        
   1863 ****         6.0000  19.5000  26.7500 Du        
   1864 ****         6.0000  19.5000  27.0000 Du        
   1865 ****         6.0000  19.5000  27.2500 Du        
   1866 ****         6.0000  19.5000  27.5000 Du        
   1867 ****         6.0000  19.5000  27.7500 Du        
   1868 ****         6.0000  19.5000  28.0000 Du        
   1869 ****         6.0000  19.7500  26.0000 Du        
   1870 ****         6.0000  19.7500  26.2500 Du        
   1871 ****         6.0000  19.7500  26.5000 Du        
   1872 ****         6.0000  19.7500  26.7500 Du        
   1873 ****         6.0000  19.7500  27.0000 Du        
   1874 ****         6.0000  19.7500  27.2500 Du        
   1875 ****         6.0000  19.7500  27.5000 Du        
   1876 ****         6.0000  19.7500  27.7500 Du        
   1877 ****         6.0000  19.7500  28.0000 Du        
   1878 ****         6.0000  19.7500  28.2500 Du        
   1879 ****         6.0000  20.0000  25.7500 Du        
   1880 ****         6.0000  20.0000  26.0000 Du        
   1881 ****         6.0000  20.0000  26.2500 Du        
   1882 ****         6.0000  20.0000  26.5000 Du        
   1883 ****         6.0000  20.0000  26.7500 Du        
   1884 ****         6.0000  20.0000  27.0000 Du        
   1885 ****         6.0000  20.0000  27.2500 Du        
   1886 ****         6.0000  20.0000  27.5000 Du        
   1887 ****         6.0000  20.0000  27.7500 Du        
   1888 ****         6.0000  20.0000  28.0000 Du        
   1889 ****         6.0000  20.0000  28.2500 Du        
   1890 ****         6.0000  20.2500  25.7500 Du        
   1891 ****         6.0000  20.2500  26.0000 Du        
   1892 ****         6.0000  20.2500  26.2500 Du        
   1893 ****         6.0000  20.2500  26.5000 Du        
   1894 ****         6.0000  20.2500  26.7500 Du        
   1895 ****         6.0000  20.2500  27.0000 Du        
   1896 ****         6.0000  20.2500  27.2500 Du        
   1897 ****         6.0000  20.2500  27.5000 Du        
   1898 ****         6.0000  20.2500  27.7500 Du        
   1899 ****         6.0000  20.2500  28.0000 Du        
   1900 ****         6.0000  20.2500  28.2500 Du        
   1901 ****         6.0000  20.5000  25.2500 Du        
   1902 ****         6.0000  20.5000  25.5000 Du        
   1903 ****         6.0000  20.5000  25.7500 Du        
   1904 ****         6.0000  20.5000  26.0000 Du        
   1905 ****         6.0000  20.5000  26.2500 Du        
   1906 ****         6.0000  20.5000  26.5000 Du        
   1907 ****         6.0000  20.5000  26.7500 Du        
   1908 ****         6.0000  20.5000  27.0000 Du        
   1909 ****         6.0000  20.5000  27.2500 Du        
   1910 ****         6.0000  20.5000  27.5000 Du        
   1911 ****         6.0000  20.5000  27.7500 Du        
   1912 ****         6.0000  20.5000  28.0000 Du        
   1913 ****         6.0000  20.5000  28.2500 Du        
   1914 ****         6.0000  20.7500  25.0000 Du        
   1915 ****         6.0000  20.7500  25.2500 Du        
   1916 ****         6.0000  20.7500  25.5000 Du        
   1917 ****         6.0000  20.7500  25.7500 Du        
   1918 ****         6.0000  20.7500  26.0000 Du        
   1919 ****         6.0000  20.7500  26.2500 Du        
   1920 ****         6.0000  20.7500  26.5000 Du        
   1921 ****         6.0000  20.7500  26.7500 Du        
   1922 ****         6.0000  20.7500  27.0000 Du        
   1923 ****         6.0000  20.7500  27.2500 Du        
   1924 ****         6.0000  20.7500  27.5000 Du        
   1925 ****         6.0000  20.7500  27.7500 Du        
   1926 ****         6.0000  20.7500  28.0000 Du        
   1927 ****         6.0000  20.7500  28.2500 Du        
   1928 ****         6.0000  21.0000  25.0000 Du        
   1929 ****         6.0000  21.0000  25.2500 Du        
   1930 ****         6.0000  21.0000  25.5000 Du        
   1931 ****         6.0000  21.0000  25.7500 Du        
   1932 ****         6.0000  21.0000  26.0000 Du        
   1933 ****         6.0000  21.0000  26.2500 Du        
   1934 ****         6.0000  21.0000  26.5000 Du        
   1935 ****         6.0000  21.0000  26.7500 Du        
   1936 ****         6.0000  21.0000  27.0000 Du        
   1937 ****         6.0000  21.0000  27.2500 Du        
   1938 ****         6.0000  21.0000  27.5000 Du        
   1939 ****         6.0000  21.0000  27.7500 Du        
   1940 ****         6.0000  21.0000  28.0000 Du        
   1941 ****         6.0000  21.0000  28.2500 Du        
   1942 ****         6.0000  21.2500  25.0000 Du        
   1943 ****         6.0000  21.2500  25.2500 Du        
   1944 ****         6.0000  21.2500  25.5000 Du        
   1945 ****         6.0000  21.2500  25.7500 Du        
   1946 ****         6.0000  21.2500  26.0000 Du        
   1947 ****         6.0000  21.2500  26.2500 Du        
   1948 ****         6.0000  21.2500  26.5000 Du        
   1949 ****         6.0000  21.2500  26.7500 Du        
   1950 ****         6.0000  21.2500  27.0000 Du        
   1951 ****         6.0000  21.2500  27.2500 Du        
   1952 ****         6.0000  21.2500  27.5000 Du        
   1953 ****         6.0000  21.2500  27.7500 Du        
   1954 ****         6.0000  21.2500  28.0000 Du        
   1955 ****         6.0000  21.2500  28.2500 Du        
   1956 ****         6.0000  21.5000  25.0000 Du        
   1957 ****         6.0000  21.5000  25.2500 Du        
   1958 ****         6.0000  21.5000  25.5000 Du        
   1959 ****         6.0000  21.5000  25.7500 Du        
   1960 ****         6.0000  21.5000  26.0000 Du        
   1961 ****         6.0000  21.5000  26.2500 Du        
   1962 ****         6.0000  21.5000  26.5000 Du        
   1963 ****         6.0000  21.5000  26.7500 Du        
   1964 ****         6.0000  21.5000  27.0000 Du        
   1965 ****         6.0000  21.5000  27.2500 Du        
   1966 ****         6.0000  21.5000  27.5000 Du        
   1967 ****         6.0000  21.5000  27.7500 Du        
   1968 ****         6.0000  21.5000  28.0000 Du        
   1969 ****         6.0000  21.7500  25.0000 Du        
   1970 ****         6.0000  21.7500  25.2500 Du        
   1971 ****         6.0000  21.7500  25.5000 Du        
   1972 ****         6.0000  21.7500  25.7500 Du        
   1973 ****         6.0000  21.7500  26.0000 Du        
   1974 ****         6.0000  21.7500  26.2500 Du        
   1975 ****         6.0000  21.7500  26.5000 Du        
   1976 ****         6.0000  21.7500  26.7500 Du        
   1977 ****         6.0000  21.7500  27.0000 Du        
   1978 ****         6.0000  21.7500  27.2500 Du        
   1979 ****         6.0000  21.7500  27.5000 Du        
   1980 ****         6.0000  21.7500  27.7500 Du        
   1981 ****         6.0000  21.7500  28.0000 Du        
   1982 ****         6.0000  22.0000  25.0000 Du        
   1983 ****         6.0000  22.0000  25.2500 Du        
   1984 ****         6.0000  22.0000  25.5000 Du        
   1985 ****         6.0000  22.0000  25.7500 Du        
   1986 ****         6.0000  22.0000  26.0000 Du        
   1987 ****         6.0000  22.0000  26.2500 Du        
   1988 ****         6.0000  22.0000  26.5000 Du        
   1989 ****         6.0000  22.0000  26.7500 Du        
   1990 ****         6.0000  22.0000  27.0000 Du        
   1991 ****         6.0000  22.0000  27.2500 Du        
   1992 ****         6.0000  22.0000  27.5000 Du        
   1993 ****         6.0000  22.0000  27.7500 Du        
   1994 ****         6.0000  22.2500  25.0000 Du        
   1995 ****         6.0000  22.2500  25.2500 Du        
   1996 ****         6.0000  22.2500  25.5000 Du        
   1997 ****         6.0000  22.2500  25.7500 Du        
   1998 ****         6.0000  22.2500  26.0000 Du        
   1999 ****         6.0000  22.2500  26.2500 Du        
   2000 ****         6.0000  22.2500  26.5000 Du        
   2001 ****         6.0000  22.2500  26.7500 Du        
   2002 ****         6.0000  22.2500  27.0000 Du        
   2003 ****         6.0000  22.2500  27.2500 Du        
   2004 ****         6.0000  22.2500  27.5000 Du        
   2005 ****         6.0000  22.5000  25.2500 Du        
   2006 ****         6.0000  22.5000  25.5000 Du        
   2007 ****         6.0000  22.5000  25.7500 Du        
   2008 ****         6.0000  22.5000  26.0000 Du        
   2009 ****         6.0000  22.5000  26.2500 Du        
   2010 ****         6.0000  22.5000  26.5000 Du        
   2011 ****         6.0000  22.5000  26.7500 Du        
   2012 ****         6.0000  22.5000  27.0000 Du        
   2013 ****         6.0000  22.5000  27.2500 Du        
   2014 ****         6.0000  22.7500  25.7500 Du        
   2015 ****         6.0000  22.7500  26.0000 Du        
   2016 ****         6.0000  22.7500  26.2500 Du        
   2017 ****         6.0000  22.7500  26.5000 Du        
   2018 ****         6.0000  22.7500  26.7500 Du        
   2019 ****         6.0000  22.7500  27.0000 Du        
   2020 ****         6.0000  22.7500  27.2500 Du        
   2021 ****         6.0000  23.0000  26.2500 Du        
   2022 ****         6.0000  23.0000  26.5000 Du        
   2023 ****         6.0000  23.0000  26.7500 Du        
   2024 ****         6.0000  23.0000  27.0000 Du        
   2025 ****         6.0000  23.2500  26.5000 Du        
   2026 ****         6.0000  23.2500  26.7500 Du        
   2027 ****         6.0000  23.2500  27.0000 Du        
   2028 ****         6.0000  25.5000  26.2500 Du        
   2029 ****         6.0000  25.5000  26.5000 Du        
   2030 ****         6.0000  25.5000  26.7500 Du        
   2031 ****         6.0000  25.7500  25.7500 Du        
   2032 ****         6.0000  25.7500  26.0000 Du        
   2033 ****         6.0000  25.7500  26.2500 Du        
   2034 ****         6.0000  25.7500  26.5000 Du        
   2035 ****         6.0000  25.7500  26.7500 Du        
   2036 ****         6.0000  25.7500  27.0000 Du        
   2037 ****         6.0000  26.0000  25.5000 Du        
   2038 ****         6.0000  26.0000  25.7500 Du        
   2039 ****         6.0000  26.0000  26.0000 Du        
   2040 ****         6.0000  26.0000  26.2500 Du        
   2041 ****         6.0000  26.0000  26.5000 Du        
   2042 ****         6.0000  26.0000  26.7500 Du        
   2043 ****         6.0000  26.0000  27.0000 Du        
   2044 ****         6.0000  26.2500  25.5000 Du        
   2045 ****         6.0000  26.2500  25.7500 Du        
   2046 ****         6.0000  26.2500  26.0000 Du        
   2047 ****         6.0000  26.2500  26.2500 Du        
   2048 ****         6.0000  26.2500  26.5000 Du        
   2049 ****         6.0000  26.2500  26.7500 Du        
   2050 ****         6.0000  26.2500  27.0000 Du        
   2051 ****         6.0000  26.2500  27.2500 Du        
   2052 ****         6.0000  26.5000  25.2500 Du        
   2053 ****         6.0000  26.5000  25.5000 Du        
   2054 ****         6.0000  26.5000  25.7500 Du        
   2055 ****         6.0000  26.5000  26.0000 Du        
   2056 ****         6.0000  26.5000  26.2500 Du        
   2057 ****         6.0000  26.5000  26.5000 Du        
   2058 ****         6.0000  26.5000  26.7500 Du        
   2059 ****         6.0000  26.5000  27.0000 Du        
   2060 ****         6.0000  26.5000  27.2500 Du        
   2061 ****         6.0000  26.5000  27.5000 Du        
   2062 ****         6.0000  26.7500  25.2500 Du        
   2063 ****         6.0000  26.7500  25.5000 Du        
   2064 ****         6.0000  26.7500  25.7500 Du        
   2065 ****         6.0000  26.7500  26.0000 Du        
   2066 ****         6.0000  26.7500  26.2500 Du        
   2067 ****         6.0000  26.7500  26.5000 Du        
   2068 ****         6.0000  26.7500  26.7500 Du        
   2069 ****         6.0000  26.7500  27.0000 Du        
   2070 ****         6.0000  26.7500  27.2500 Du        
   2071 ****         6.0000  26.7500  27.5000 Du        
   2072 ****         6.0000  26.7500  27.7500 Du        
   2073 ****         6.0000  27.0000  25.0000 Du        
   2074 ****         6.0000  27.0000  25.2500 Du        
   2075 ****         6.0000  27.0000  25.5000 Du        
   2076 ****         6.0000  27.0000  25.7500 Du        
   2077 ****         6.0000  27.0000  26.0000 Du        
   2078 ****         6.0000  27.0000  26.2500 Du        
   2079 ****         6.0000  27.0000  26.5000 Du        
   2080 ****         6.0000  27.0000  26.7500 Du        
   2081 ****         6.0000  27.0000  27.0000 Du        
   2082 ****         6.0000  27.0000  27.2500 Du        
   2083 ****         6.0000  27.0000  27.5000 Du        
   2084 ****         6.0000  27.0000  27.7500 Du        
   2085 ****         6.0000  27.0000  28.0000 Du        
   2086 ****         6.0000  27.2500  25.0000 Du        
   2087 ****         6.0000  27.2500  25.2500 Du        
   2088 ****         6.0000  27.2500  25.5000 Du        
   2089 ****         6.0000  27.2500  25.7500 Du        
   2090 ****         6.0000  27.2500  26.0000 Du        
   2091 ****         6.0000  27.2500  26.2500 Du        
   2092 ****         6.0000  27.2500  26.5000 Du        
   2093 ****         6.0000  27.2500  26.7500 Du        
   2094 ****         6.0000  27.2500  27.0000 Du        
   2095 ****         6.0000  27.2500  27.2500 Du        
   2096 ****         6.0000  27.2500  27.5000 Du        
   2097 ****         6.0000  27.2500  27.7500 Du        
   2098 ****         6.0000  27.2500  28.0000 Du        
   2099 ****         6.0000  27.2500  28.2500 Du        
   2100 ****         6.0000  27.5000  24.7500 Du        
   2101 ****         6.0000  27.5000  25.0000 Du        
   2102 ****         6.0000  27.5000  25.2500 Du        
   2103 ****         6.0000  27.5000  25.5000 Du        
   2104 ****         6.0000  27.5000  25.7500 Du        
   2105 ****         6.0000  27.5000  26.0000 Du        
   2106 ****         6.0000  27.5000  26.2500 Du        
   2107 ****         6.0000  27.5000  26.5000 Du        
   2108 ****         6.0000  27.5000  26.7500 Du        
   2109 ****         6.0000  27.5000  27.0000 Du        
   2110 ****         6.0000  27.5000  27.2500 Du        
   2111 ****         6.0000  27.5000  27.5000 Du        
   2112 ****         6.0000  27.5000  27.7500 Du        
   2113 ****         6.0000  27.5000  28.0000 Du        
   2114 ****         6.0000  27.5000  28.2500 Du        
   2115 ****         6.0000  27.7500  24.7500 Du        
   2116 ****         6.0000  27.7500  25.0000 Du        
   2117 ****         6.0000  27.7500  25.2500 Du        
   2118 ****         6.0000  27.7500  25.5000 Du        
   2119 ****         6.0000  27.7500  25.7500 Du        
   2120 ****         6.0000  27.7500  26.0000 Du        
   2121 ****         6.0000  27.7500  26.2500 Du        
   2122 ****         6.0000  27.7500  26.5000 Du        
   2123 ****         6.0000  27.7500  26.7500 Du        
   2124 ****         6.0000  27.7500  27.0000 Du        
   2125 ****         6.0000  27.7500  27.2500 Du        
   2126 ****         6.0000  27.7500  27.5000 Du        
   2127 ****         6.0000  27.7500  27.7500 Du        
   2128 ****         6.0000  27.7500  28.0000 Du        
   2129 ****         6.0000  27.7500  28.2500 Du        
   2130 ****         6.0000  27.7500  28.5000 Du        
   2131 ****         6.0000  28.0000  24.5000 Du        
   2132 ****         6.0000  28.0000  24.7500 Du        
   2133 ****         6.0000  28.0000  25.0000 Du        
   2134 ****         6.0000  28.0000  25.2500 Du        
   2135 ****         6.0000  28.0000  25.5000 Du        
   2136 ****         6.0000  28.0000  25.7500 Du        
   2137 ****         6.0000  28.0000  26.0000 Du        
   2138 ****         6.0000  28.0000  26.2500 Du        
   2139 ****         6.0000  28.0000  26.5000 Du        
   2140 ****         6.0000  28.0000  26.7500 Du        
   2141 ****         6.0000  28.0000  27.0000 Du        
   2142 ****         6.0000  28.0000  27.2500 Du        
   2143 ****         6.0000  28.0000  27.5000 Du        
   2144 ****         6.0000  28.0000  27.7500 Du        
   2145 ****         6.0000  28.0000  28.0000 Du        
   2146 ****         6.0000  28.0000  28.2500 Du        
   2147 ****         6.0000  28.0000  28.5000 Du        
   2148 ****         6.0000  28.0000  28.7500 Du        
   2149 ****         6.0000  28.2500  24.5000 Du        
   2150 ****         6.0000  28.2500  24.7500 Du        
   2151 ****         6.0000  28.2500  25.0000 Du        
   2152 ****         6.0000  28.2500  25.2500 Du        
   2153 ****         6.0000  28.2500  25.5000 Du        
   2154 ****         6.0000  28.2500  25.7500 Du        
   2155 ****         6.0000  28.2500  26.0000 Du        
   2156 ****         6.0000  28.2500  26.2500 Du        
   2157 ****         6.0000  28.2500  26.5000 Du        
   2158 ****         6.0000  28.2500  26.7500 Du        
   2159 ****         6.0000  28.2500  27.0000 Du        
   2160 ****         6.0000  28.2500  27.2500 Du        
   2161 ****         6.0000  28.2500  27.5000 Du        
   2162 ****         6.0000  28.2500  27.7500 Du        
   2163 ****         6.0000  28.2500  28.0000 Du        
   2164 ****         6.0000  28.2500  28.2500 Du        
   2165 ****         6.0000  28.2500  28.5000 Du        
   2166 ****         6.0000  28.2500  28.7500 Du        
   2167 ****         6.0000  28.5000  24.7500 Du        
   2168 ****         6.0000  28.5000  25.0000 Du        
   2169 ****         6.0000  28.5000  25.2500 Du        
   2170 ****         6.0000  28.5000  25.5000 Du        
   2171 ****         6.0000  28.5000  25.7500 Du        
   2172 ****         6.0000  28.5000  26.0000 Du        
   2173 ****         6.0000  28.5000  26.2500 Du        
   2174 ****         6.0000  28.5000  26.5000 Du        
   2175 ****         6.0000  28.5000  26.7500 Du        
   2176 ****         6.0000  28.5000  27.0000 Du        
   2177 ****         6.0000  28.5000  27.2500 Du        
   2178 ****         6.0000  28.5000  27.5000 Du        
   2179 ****         6.0000  28.5000  27.7500 Du        
   2180 ****         6.0000  28.5000  28.0000 Du        
   2181 ****         6.0000  28.5000  28.2500 Du        
   2182 ****         6.0000  28.5000  28.5000 Du        
   2183 ****         6.0000  28.5000  28.7500 Du        
   2184 ****         6.0000  28.7500  25.0000 Du        
   2185 ****         6.0000  28.7500  25.2500 Du        
   2186 ****         6.0000  28.7500  25.5000 Du        
   2187 ****         6.0000  28.7500  25.7500 Du        
   2188 ****         6.0000  28.7500  26.0000 Du        
   2189 ****         6.0000  28.7500  26.2500 Du        
   2190 ****         6.0000  28.7500  26.5000 Du        
   2191 ****         6.0000  28.7500  26.7500 Du        
   2192 ****         6.0000  28.7500  27.0000 Du        
   2193 ****         6.0000  28.7500  27.2500 Du        
   2194 ****         6.0000  28.7500  27.5000 Du        
   2195 ****         6.0000  28.7500  27.7500 Du        
   2196 ****         6.0000  28.7500  28.0000 Du        
   2197 ****         6.0000  28.7500  28.2500 Du        
   2198 ****         6.0000  28.7500  28.5000 Du        
   2199 ****         6.0000  28.7500  28.7500 Du        
   2200 ****         6.0000  28.7500  29.0000 Du        
   2201 ****         6.0000  29.0000  25.5000 Du        
   2202 ****         6.0000  29.0000  25.7500 Du        
   2203 ****         6.0000  29.0000  26.0000 Du        
   2204 ****         6.0000  29.0000  26.2500 Du        
   2205 ****         6.0000  29.0000  26.5000 Du        
   2206 ****         6.0000  29.0000  26.7500 Du        
   2207 ****         6.0000  29.0000  27.0000 Du        
   2208 ****         6.0000  29.0000  27.2500 Du        
   2209 ****         6.0000  29.0000  27.5000 Du        
   2210 ****         6.0000  29.0000  27.7500 Du        
   2211 ****         6.0000  29.0000  28.0000 Du        
   2212 ****         6.0000  29.0000  28.2500 Du        
   2213 ****         6.0000  29.0000  28.5000 Du        
   2214 ****         6.0000  29.0000  28.7500 Du        
   2215 ****         6.0000  29.0000  29.0000 Du        
   2216 ****         6.0000  29.2500  26.0000 Du        
   2217 ****         6.0000  29.2500  26.2500 Du        
   2218 ****         6.0000  29.2500  26.5000 Du        
   2219 ****         6.0000  29.2500  26.7500 Du        
   2220 ****         6.0000  29.2500  27.0000 Du        
   2221 ****         6.0000  29.2500  27.2500 Du        
   2222 ****         6.0000  29.2500  27.5000 Du        
   2223 ****         6.0000  29.2500  27.7500 Du        
   2224 ****         6.0000  29.2500  28.0000 Du        
   2225 ****         6.0000  29.2500  28.2500 Du        
   2226 ****         6.0000  29.2500  28.5000 Du        
   2227 ****         6.0000  29.2500  28.7500 Du        
   2228 ****         6.0000  29.5000  26.5000 Du        
   2229 ****         6.0000  29.5000  26.7500 Du        
   2230 ****         6.0000  29.5000  27.0000 Du        
   2231 ****         6.0000  29.5000  27.2500 Du        
   2232 ****         6.0000  29.5000  27.5000 Du        
   2233 ****         6.0000  29.5000  27.7500 Du        
   2234 ****         6.0000  29.5000  28.0000 Du        
   2235 ****         6.0000  29.5000  28.2500 Du        
   2236 ****         6.0000  29.5000  28.5000 Du        
   2237 ****         6.0000  29.7500  27.5000 Du        
   2238 ****         6.0000  29.7500  27.7500 Du        
   2239 ****         6.0000  29.7500  28.0000 Du        
   2240 ****         6.2500  18.7500  27.2500 Du        
   2241 ****         6.2500  18.7500  27.5000 Du        
   2242 ****         6.2500  18.7500  27.7500 Du        
   2243 ****         6.2500  19.0000  27.0000 Du        
   2244 ****         6.2500  19.0000  27.2500 Du        
   2245 ****         6.2500  19.0000  27.5000 Du        
   2246 ****         6.2500  19.0000  27.7500 Du        
   2247 ****         6.2500  19.0000  28.0000 Du        
   2248 ****         6.2500  19.2500  26.7500 Du        
   2249 ****         6.2500  19.2500  27.0000 Du        
   2250 ****         6.2500  19.2500  27.2500 Du        
   2251 ****         6.2500  19.2500  27.5000 Du        
   2252 ****         6.2500  19.2500  27.7500 Du        
   2253 ****         6.2500  19.2500  28.0000 Du        
   2254 ****         6.2500  19.5000  26.2500 Du        
   2255 ****         6.2500  19.5000  26.5000 Du        
   2256 ****         6.2500  19.5000  26.7500 Du        
   2257 ****         6.2500  19.5000  27.0000 Du        
   2258 ****         6.2500  19.5000  27.2500 Du        
   2259 ****         6.2500  19.5000  27.5000 Du        
   2260 ****         6.2500  19.5000  27.7500 Du        
   2261 ****         6.2500  19.5000  28.0000 Du        
   2262 ****         6.2500  19.5000  28.2500 Du        
   2263 ****         6.2500  19.7500  26.0000 Du        
   2264 ****         6.2500  19.7500  26.2500 Du        
   2265 ****         6.2500  19.7500  26.5000 Du        
   2266 ****         6.2500  19.7500  26.7500 Du        
   2267 ****         6.2500  19.7500  27.0000 Du        
   2268 ****         6.2500  19.7500  27.2500 Du        
   2269 ****         6.2500  19.7500  27.5000 Du        
   2270 ****         6.2500  19.7500  27.7500 Du        
   2271 ****         6.2500  19.7500  28.0000 Du        
   2272 ****         6.2500  19.7500  28.2500 Du        
   2273 ****         6.2500  19.7500  28.5000 Du        
   2274 ****         6.2500  20.0000  26.0000 Du        
   2275 ****         6.2500  20.0000  26.2500 Du        
   2276 ****         6.2500  20.0000  26.5000 Du        
   2277 ****         6.2500  20.0000  26.7500 Du        
   2278 ****         6.2500  20.0000  27.0000 Du        
   2279 ****         6.2500  20.0000  27.2500 Du        
   2280 ****         6.2500  20.0000  27.5000 Du        
   2281 ****         6.2500  20.0000  27.7500 Du        
   2282 ****         6.2500  20.0000  28.0000 Du        
   2283 ****         6.2500  20.0000  28.2500 Du        
   2284 ****         6.2500  20.0000  28.5000 Du        
   2285 ****         6.2500  20.2500  25.5000 Du        
   2286 ****         6.2500  20.2500  25.7500 Du        
   2287 ****         6.2500  20.2500  26.0000 Du        
   2288 ****         6.2500  20.2500  26.2500 Du        
   2289 ****         6.2500  20.2500  26.5000 Du        
   2290 ****         6.2500  20.2500  26.7500 Du        
   2291 ****         6.2500  20.2500  27.0000 Du        
   2292 ****         6.2500  20.2500  27.2500 Du        
   2293 ****         6.2500  20.2500  27.5000 Du        
   2294 ****         6.2500  20.2500  27.7500 Du        
   2295 ****         6.2500  20.2500  28.0000 Du        
   2296 ****         6.2500  20.2500  28.2500 Du        
   2297 ****         6.2500  20.2500  28.5000 Du        
   2298 ****         6.2500  20.5000  25.2500 Du        
   2299 ****         6.2500  20.5000  25.5000 Du        
   2300 ****         6.2500  20.5000  25.7500 Du        
   2301 ****         6.2500  20.5000  26.0000 Du        
   2302 ****         6.2500  20.5000  26.2500 Du        
   2303 ****         6.2500  20.5000  26.5000 Du        
   2304 ****         6.2500  20.5000  26.7500 Du        
   2305 ****         6.2500  20.5000  27.0000 Du        
   2306 ****         6.2500  20.5000  27.2500 Du        
   2307 ****         6.2500  20.5000  27.5000 Du        
   2308 ****         6.2500  20.5000  27.7500 Du        
   2309 ****         6.2500  20.5000  28.0000 Du        
   2310 ****         6.2500  20.5000  28.2500 Du        
   2311 ****         6.2500  20.5000  28.5000 Du        
   2312 ****         6.2500  20.7500  25.0000 Du        
   2313 ****         6.2500  20.7500  25.2500 Du        
   2314 ****         6.2500  20.7500  25.5000 Du        
   2315 ****         6.2500  20.7500  25.7500 Du        
   2316 ****         6.2500  20.7500  26.0000 Du        
   2317 ****         6.2500  20.7500  26.2500 Du        
   2318 ****         6.2500  20.7500  26.5000 Du        
   2319 ****         6.2500  20.7500  26.7500 Du        
   2320 ****         6.2500  20.7500  27.0000 Du        
   2321 ****         6.2500  20.7500  27.2500 Du        
   2322 ****         6.2500  20.7500  27.5000 Du        
   2323 ****         6.2500  20.7500  27.7500 Du        
   2324 ****         6.2500  20.7500  28.0000 Du        
   2325 ****         6.2500  20.7500  28.2500 Du        
   2326 ****         6.2500  20.7500  28.5000 Du        
   2327 ****         6.2500  21.0000  25.0000 Du        
   2328 ****         6.2500  21.0000  25.2500 Du        
   2329 ****         6.2500  21.0000  25.5000 Du        
   2330 ****         6.2500  21.0000  25.7500 Du        
   2331 ****         6.2500  21.0000  26.0000 Du        
   2332 ****         6.2500  21.0000  26.2500 Du        
   2333 ****         6.2500  21.0000  26.5000 Du        
   2334 ****         6.2500  21.0000  26.7500 Du        
   2335 ****         6.2500  21.0000  27.0000 Du        
   2336 ****         6.2500  21.0000  27.2500 Du        
   2337 ****         6.2500  21.0000  27.5000 Du        
   2338 ****         6.2500  21.0000  27.7500 Du        
   2339 ****         6.2500  21.0000  28.0000 Du        
   2340 ****         6.2500  21.0000  28.2500 Du        
   2341 ****         6.2500  21.0000  28.5000 Du        
   2342 ****         6.2500  21.2500  25.0000 Du        
   2343 ****         6.2500  21.2500  25.2500 Du        
   2344 ****         6.2500  21.2500  25.5000 Du        
   2345 ****         6.2500  21.2500  25.7500 Du        
   2346 ****         6.2500  21.2500  26.0000 Du        
   2347 ****         6.2500  21.2500  26.2500 Du        
   2348 ****         6.2500  21.2500  26.5000 Du        
   2349 ****         6.2500  21.2500  26.7500 Du        
   2350 ****         6.2500  21.2500  27.0000 Du        
   2351 ****         6.2500  21.2500  27.2500 Du        
   2352 ****         6.2500  21.2500  27.5000 Du        
   2353 ****         6.2500  21.2500  27.7500 Du        
   2354 ****         6.2500  21.2500  28.0000 Du        
   2355 ****         6.2500  21.2500  28.2500 Du        
   2356 ****         6.2500  21.5000  25.0000 Du        
   2357 ****         6.2500  21.5000  25.2500 Du        
   2358 ****         6.2500  21.5000  25.5000 Du        
   2359 ****         6.2500  21.5000  25.7500 Du        
   2360 ****         6.2500  21.5000  26.0000 Du        
   2361 ****         6.2500  21.5000  26.2500 Du        
   2362 ****         6.2500  21.5000  26.5000 Du        
   2363 ****         6.2500  21.5000  26.7500 Du        
   2364 ****         6.2500  21.5000  27.0000 Du        
   2365 ****         6.2500  21.5000  27.2500 Du        
   2366 ****         6.2500  21.5000  27.5000 Du        
   2367 ****         6.2500  21.5000  27.7500 Du        
   2368 ****         6.2500  21.5000  28.0000 Du        
   2369 ****         6.2500  21.7500  25.0000 Du        
   2370 ****         6.2500  21.7500  25.2500 Du        
   2371 ****         6.2500  21.7500  25.5000 Du        
   2372 ****         6.2500  21.7500  25.7500 Du        
   2373 ****         6.2500  21.7500  26.0000 Du        
   2374 ****         6.2500  21.7500  26.2500 Du        
   2375 ****         6.2500  21.7500  26.5000 Du        
   2376 ****         6.2500  21.7500  26.7500 Du        
   2377 ****         6.2500  21.7500  27.0000 Du        
   2378 ****         6.2500  21.7500  27.2500 Du        
   2379 ****         6.2500  21.7500  27.5000 Du        
   2380 ****         6.2500  21.7500  27.7500 Du        
   2381 ****         6.2500  21.7500  28.0000 Du        
   2382 ****         6.2500  22.0000  25.0000 Du        
   2383 ****         6.2500  22.0000  25.2500 Du        
   2384 ****         6.2500  22.0000  25.5000 Du        
   2385 ****         6.2500  22.0000  25.7500 Du        
   2386 ****         6.2500  22.0000  26.0000 Du        
   2387 ****         6.2500  22.0000  26.2500 Du        
   2388 ****         6.2500  22.0000  26.5000 Du        
   2389 ****         6.2500  22.0000  26.7500 Du        
   2390 ****         6.2500  22.0000  27.0000 Du        
   2391 ****         6.2500  22.0000  27.2500 Du        
   2392 ****         6.2500  22.0000  27.5000 Du        
   2393 ****         6.2500  22.0000  27.7500 Du        
   2394 ****         6.2500  22.2500  25.0000 Du        
   2395 ****         6.2500  22.2500  25.2500 Du        
   2396 ****         6.2500  22.2500  25.5000 Du        
   2397 ****         6.2500  22.2500  25.7500 Du        
   2398 ****         6.2500  22.2500  26.0000 Du        
   2399 ****         6.2500  22.2500  26.2500 Du        
   2400 ****         6.2500  22.2500  26.5000 Du        
   2401 ****         6.2500  22.2500  26.7500 Du        
   2402 ****         6.2500  22.2500  27.0000 Du        
   2403 ****         6.2500  22.2500  27.2500 Du        
   2404 ****         6.2500  22.2500  27.5000 Du        
   2405 ****         6.2500  22.5000  25.0000 Du        
   2406 ****         6.2500  22.5000  25.2500 Du        
   2407 ****         6.2500  22.5000  25.5000 Du        
   2408 ****         6.2500  22.5000  25.7500 Du        
   2409 ****         6.2500  22.5000  26.0000 Du        
   2410 ****         6.2500  22.5000  26.2500 Du        
   2411 ****         6.2500  22.5000  26.5000 Du        
   2412 ****         6.2500  22.5000  26.7500 Du        
   2413 ****         6.2500  22.5000  27.0000 Du        
   2414 ****         6.2500  22.5000  27.2500 Du        
   2415 ****         6.2500  22.7500  25.0000 Du        
   2416 ****         6.2500  22.7500  25.2500 Du        
   2417 ****         6.2500  22.7500  25.5000 Du        
   2418 ****         6.2500  22.7500  25.7500 Du        
   2419 ****         6.2500  22.7500  26.0000 Du        
   2420 ****         6.2500  22.7500  26.2500 Du        
   2421 ****         6.2500  22.7500  26.5000 Du        
   2422 ****         6.2500  22.7500  26.7500 Du        
   2423 ****         6.2500  22.7500  27.0000 Du        
   2424 ****         6.2500  23.0000  25.5000 Du        
   2425 ****         6.2500  23.0000  25.7500 Du        
   2426 ****         6.2500  23.0000  26.0000 Du        
   2427 ****         6.2500  23.0000  26.2500 Du        
   2428 ****         6.2500  23.0000  26.5000 Du        
   2429 ****         6.2500  23.0000  26.7500 Du        
   2430 ****         6.2500  23.0000  27.0000 Du        
   2431 ****         6.2500  23.2500  25.7500 Du        
   2432 ****         6.2500  23.2500  26.0000 Du        
   2433 ****         6.2500  23.2500  26.2500 Du        
   2434 ****         6.2500  23.2500  26.5000 Du        
   2435 ****         6.2500  23.2500  26.7500 Du        
   2436 ****         6.2500  23.5000  26.2500 Du        
   2437 ****         6.2500  25.2500  25.7500 Du        
   2438 ****         6.2500  25.2500  26.0000 Du        
   2439 ****         6.2500  25.2500  26.2500 Du        
   2440 ****         6.2500  25.5000  25.7500 Du        
   2441 ****         6.2500  25.5000  26.0000 Du        
   2442 ****         6.2500  25.5000  26.2500 Du        
   2443 ****         6.2500  25.5000  26.5000 Du        
   2444 ****         6.2500  25.7500  25.5000 Du        
   2445 ****         6.2500  25.7500  25.7500 Du        
   2446 ****         6.2500  25.7500  26.0000 Du        
   2447 ****         6.2500  25.7500  26.2500 Du        
   2448 ****         6.2500  25.7500  26.5000 Du        
   2449 ****         6.2500  26.0000  25.2500 Du        
   2450 ****         6.2500  26.0000  25.5000 Du        
   2451 ****         6.2500  26.0000  25.7500 Du        
   2452 ****         6.2500  26.0000  26.0000 Du        
   2453 ****         6.2500  26.0000  26.2500 Du        
   2454 ****         6.2500  26.0000  26.5000 Du        
   2455 ****         6.2500  26.0000  26.7500 Du        
   2456 ****         6.2500  26.2500  25.2500 Du        
   2457 ****         6.2500  26.2500  25.5000 Du        
   2458 ****         6.2500  26.2500  25.7500 Du        
   2459 ****         6.2500  26.2500  26.0000 Du        
   2460 ****         6.2500  26.2500  26.2500 Du        
   2461 ****         6.2500  26.2500  26.5000 Du        
   2462 ****         6.2500  26.2500  26.7500 Du        
   2463 ****         6.2500  26.2500  27.0000 Du        
   2464 ****         6.2500  26.5000  25.2500 Du        
   2465 ****         6.2500  26.5000  25.5000 Du        
   2466 ****         6.2500  26.5000  25.7500 Du        
   2467 ****         6.2500  26.5000  26.0000 Du        
   2468 ****         6.2500  26.5000  26.2500 Du        
   2469 ****         6.2500  26.5000  26.5000 Du        
   2470 ****         6.2500  26.5000  26.7500 Du        
   2471 ****         6.2500  26.5000  27.0000 Du        
   2472 ****         6.2500  26.5000  27.2500 Du        
   2473 ****         6.2500  26.7500  25.0000 Du        
   2474 ****         6.2500  26.7500  25.2500 Du        
   2475 ****         6.2500  26.7500  25.5000 Du        
   2476 ****         6.2500  26.7500  25.7500 Du        
   2477 ****         6.2500  26.7500  26.0000 Du        
   2478 ****         6.2500  26.7500  26.2500 Du        
   2479 ****         6.2500  26.7500  26.5000 Du        
   2480 ****         6.2500  26.7500  26.7500 Du        
   2481 ****         6.2500  26.7500  27.0000 Du        
   2482 ****         6.2500  26.7500  27.2500 Du        
   2483 ****         6.2500  26.7500  27.5000 Du        
   2484 ****         6.2500  27.0000  24.7500 Du        
   2485 ****         6.2500  27.0000  25.0000 Du        
   2486 ****         6.2500  27.0000  25.2500 Du        
   2487 ****         6.2500  27.0000  25.5000 Du        
   2488 ****         6.2500  27.0000  25.7500 Du        
   2489 ****         6.2500  27.0000  26.0000 Du        
   2490 ****         6.2500  27.0000  26.2500 Du        
   2491 ****         6.2500  27.0000  26.5000 Du        
   2492 ****         6.2500  27.0000  26.7500 Du        
   2493 ****         6.2500  27.0000  27.0000 Du        
   2494 ****         6.2500  27.0000  27.2500 Du        
   2495 ****         6.2500  27.0000  27.5000 Du        
   2496 ****         6.2500  27.0000  27.7500 Du        
   2497 ****         6.2500  27.2500  24.7500 Du        
   2498 ****         6.2500  27.2500  25.0000 Du        
   2499 ****         6.2500  27.2500  25.2500 Du        
   2500 ****         6.2500  27.2500  25.5000 Du        
   2501 ****         6.2500  27.2500  25.7500 Du        
   2502 ****         6.2500  27.2500  26.0000 Du        
   2503 ****         6.2500  27.2500  26.2500 Du        
   2504 ****         6.2500  27.2500  26.5000 Du        
   2505 ****         6.2500  27.2500  26.7500 Du        
   2506 ****         6.2500  27.2500  27.0000 Du        
   2507 ****         6.2500  27.2500  27.2500 Du        
   2508 ****         6.2500  27.2500  27.5000 Du        
   2509 ****         6.2500  27.2500  27.7500 Du        
   2510 ****         6.2500  27.2500  28.0000 Du        
   2511 ****         6.2500  27.5000  24.5000 Du        
   2512 ****         6.2500  27.5000  24.7500 Du        
   2513 ****         6.2500  27.5000  25.0000 Du        
   2514 ****         6.2500  27.5000  25.2500 Du        
   2515 ****         6.2500  27.5000  25.5000 Du        
   2516 ****         6.2500  27.5000  25.7500 Du        
   2517 ****         6.2500  27.5000  26.0000 Du        
   2518 ****         6.2500  27.5000  26.2500 Du        
   2519 ****         6.2500  27.5000  26.5000 Du        
   2520 ****         6.2500  27.5000  26.7500 Du        
   2521 ****         6.2500  27.5000  27.0000 Du        
   2522 ****         6.2500  27.5000  27.2500 Du        
   2523 ****         6.2500  27.5000  27.5000 Du        
   2524 ****         6.2500  27.5000  27.7500 Du        
   2525 ****         6.2500  27.5000  28.0000 Du        
   2526 ****         6.2500  27.5000  28.2500 Du        
   2527 ****         6.2500  27.7500  24.5000 Du        
   2528 ****         6.2500  27.7500  24.7500 Du        
   2529 ****         6.2500  27.7500  25.0000 Du        
   2530 ****         6.2500  27.7500  25.2500 Du        
   2531 ****         6.2500  27.7500  25.5000 Du        
   2532 ****         6.2500  27.7500  25.7500 Du        
   2533 ****         6.2500  27.7500  26.0000 Du        
   2534 ****         6.2500  27.7500  26.2500 Du        
   2535 ****         6.2500  27.7500  26.5000 Du        
   2536 ****         6.2500  27.7500  26.7500 Du        
   2537 ****         6.2500  27.7500  27.0000 Du        
   2538 ****         6.2500  27.7500  27.2500 Du        
   2539 ****         6.2500  27.7500  27.5000 Du        
   2540 ****         6.2500  27.7500  27.7500 Du        
   2541 ****         6.2500  27.7500  28.0000 Du        
   2542 ****         6.2500  27.7500  28.2500 Du        
   2543 ****         6.2500  27.7500  28.5000 Du        
   2544 ****         6.2500  28.0000  24.2500 Du        
   2545 ****         6.2500  28.0000  24.5000 Du        
   2546 ****         6.2500  28.0000  24.7500 Du        
   2547 ****         6.2500  28.0000  25.0000 Du        
   2548 ****         6.2500  28.0000  25.2500 Du        
   2549 ****         6.2500  28.0000  25.5000 Du        
   2550 ****         6.2500  28.0000  25.7500 Du        
   2551 ****         6.2500  28.0000  26.0000 Du        
   2552 ****         6.2500  28.0000  26.2500 Du        
   2553 ****         6.2500  28.0000  26.5000 Du        
   2554 ****         6.2500  28.0000  26.7500 Du        
   2555 ****         6.2500  28.0000  27.0000 Du        
   2556 ****         6.2500  28.0000  27.2500 Du        
   2557 ****         6.2500  28.0000  27.5000 Du        
   2558 ****         6.2500  28.0000  27.7500 Du        
   2559 ****         6.2500  28.0000  28.0000 Du        
   2560 ****         6.2500  28.0000  28.2500 Du        
   2561 ****         6.2500  28.0000  28.5000 Du        
   2562 ****         6.2500  28.0000  28.7500 Du        
   2563 ****         6.2500  28.2500  24.2500 Du        
   2564 ****         6.2500  28.2500  24.5000 Du        
   2565 ****         6.2500  28.2500  24.7500 Du        
   2566 ****         6.2500  28.2500  25.0000 Du        
   2567 ****         6.2500  28.2500  25.2500 Du        
   2568 ****         6.2500  28.2500  25.5000 Du        
   2569 ****         6.2500  28.2500  25.7500 Du        
   2570 ****         6.2500  28.2500  26.0000 Du        
   2571 ****         6.2500  28.2500  26.2500 Du        
   2572 ****         6.2500  28.2500  26.5000 Du        
   2573 ****         6.2500  28.2500  26.7500 Du        
   2574 ****         6.2500  28.2500  27.0000 Du        
   2575 ****         6.2500  28.2500  27.2500 Du        
   2576 ****         6.2500  28.2500  27.5000 Du        
   2577 ****         6.2500  28.2500  27.7500 Du        
   2578 ****         6.2500  28.2500  28.0000 Du        
   2579 ****         6.2500  28.2500  28.2500 Du        
   2580 ****         6.2500  28.2500  28.5000 Du        
   2581 ****         6.2500  28.2500  28.7500 Du        
   2582 ****         6.2500  28.5000  24.5000 Du        
   2583 ****         6.2500  28.5000  24.7500 Du        
   2584 ****         6.2500  28.5000  25.0000 Du        
   2585 ****         6.2500  28.5000  25.2500 Du        
   2586 ****         6.2500  28.5000  25.5000 Du        
   2587 ****         6.2500  28.5000  25.7500 Du        
   2588 ****         6.2500  28.5000  26.0000 Du        
   2589 ****         6.2500  28.5000  26.2500 Du        
   2590 ****         6.2500  28.5000  26.5000 Du        
   2591 ****         6.2500  28.5000  26.7500 Du        
   2592 ****         6.2500  28.5000  27.0000 Du        
   2593 ****         6.2500  28.5000  27.2500 Du        
   2594 ****         6.2500  28.5000  27.5000 Du        
   2595 ****         6.2500  28.5000  27.7500 Du        
   2596 ****         6.2500  28.5000  28.0000 Du        
   2597 ****         6.2500  28.5000  28.2500 Du        
   2598 ****         6.2500  28.5000  28.5000 Du        
   2599 ****         6.2500  28.5000  28.7500 Du        
   2600 ****         6.2500  28.7500  24.7500 Du        
   2601 ****         6.2500  28.7500  25.0000 Du        
   2602 ****         6.2500  28.7500  25.2500 Du        
   2603 ****         6.2500  28.7500  25.5000 Du        
   2604 ****         6.2500  28.7500  25.7500 Du        
   2605 ****         6.2500  28.7500  26.0000 Du        
   2606 ****         6.2500  28.7500  26.2500 Du        
   2607 ****         6.2500  28.7500  26.5000 Du        
   2608 ****         6.2500  28.7500  26.7500 Du        
   2609 ****         6.2500  28.7500  27.0000 Du        
   2610 ****         6.2500  28.7500  27.2500 Du        
   2611 ****         6.2500  28.7500  27.5000 Du        
   2612 ****         6.2500  28.7500  27.7500 Du        
   2613 ****         6.2500  28.7500  28.0000 Du        
   2614 ****         6.2500  28.7500  28.2500 Du        
   2615 ****         6.2500  28.7500  28.5000 Du        
   2616 ****         6.2500  29.0000  25.5000 Du        
   2617 ****         6.2500  29.0000  25.7500 Du        
   2618 ****         6.2500  29.0000  26.0000 Du        
   2619 ****         6.2500  29.0000  26.2500 Du        
   2620 ****         6.2500  29.0000  26.5000 Du        
   2621 ****         6.2500  29.0000  26.7500 Du        
   2622 ****         6.2500  29.0000  27.0000 Du        
   2623 ****         6.2500  29.0000  27.2500 Du        
   2624 ****         6.2500  29.0000  27.5000 Du        
   2625 ****         6.2500  29.0000  27.7500 Du        
   2626 ****         6.2500  29.0000  28.0000 Du        
   2627 ****         6.2500  29.0000  28.2500 Du        
   2628 ****         6.2500  29.2500  25.7500 Du        
   2629 ****         6.2500  29.2500  26.0000 Du        
   2630 ****         6.2500  29.2500  26.2500 Du        
   2631 ****         6.2500  29.2500  26.5000 Du        
   2632 ****         6.2500  29.2500  26.7500 Du        
   2633 ****         6.2500  29.2500  27.0000 Du        
   2634 ****         6.2500  29.2500  27.2500 Du        
   2635 ****         6.2500  29.2500  27.5000 Du        
   2636 ****         6.2500  29.2500  27.7500 Du        
   2637 ****         6.2500  29.2500  28.0000 Du        
   2638 ****         6.2500  29.2500  28.2500 Du        
   2639 ****         6.2500  29.5000  26.5000 Du        
   2640 ****         6.2500  29.5000  26.7500 Du        
   2641 ****         6.2500  29.5000  27.0000 Du        
   2642 ****         6.2500  29.5000  27.2500 Du        
   2643 ****         6.2500  29.5000  27.5000 Du        
   2644 ****         6.2500  29.5000  27.7500 Du        
   2645 ****         6.5000  19.0000  27.2500 Du        
   2646 ****         6.5000  19.2500  27.0000 Du        
   2647 ****         6.5000  19.2500  27.2500 Du        
   2648 ****         6.5000  19.2500  27.7500 Du        
   2649 ****         6.5000  19.2500  28.0000 Du        
   2650 ****         6.5000  19.5000  26.7500 Du        
   2651 ****         6.5000  19.5000  27.0000 Du        
   2652 ****         6.5000  19.5000  27.2500 Du        
   2653 ****         6.5000  19.5000  27.5000 Du        
   2654 ****         6.5000  19.5000  27.7500 Du        
   2655 ****         6.5000  19.5000  28.0000 Du        
   2656 ****         6.5000  19.5000  28.2500 Du        
   2657 ****         6.5000  19.7500  26.5000 Du        
   2658 ****         6.5000  19.7500  26.7500 Du        
   2659 ****         6.5000  19.7500  27.0000 Du        
   2660 ****         6.5000  19.7500  27.2500 Du        
   2661 ****         6.5000  19.7500  27.5000 Du        
   2662 ****         6.5000  19.7500  27.7500 Du        
   2663 ****         6.5000  19.7500  28.0000 Du        
   2664 ****         6.5000  19.7500  28.2500 Du        
   2665 ****         6.5000  19.7500  28.5000 Du        
   2666 ****         6.5000  20.0000  26.2500 Du        
   2667 ****         6.5000  20.0000  26.5000 Du        
   2668 ****         6.5000  20.0000  26.7500 Du        
   2669 ****         6.5000  20.0000  27.0000 Du        
   2670 ****         6.5000  20.0000  27.2500 Du        
   2671 ****         6.5000  20.0000  27.5000 Du        
   2672 ****         6.5000  20.0000  27.7500 Du        
   2673 ****         6.5000  20.0000  28.0000 Du        
   2674 ****         6.5000  20.0000  28.2500 Du        
   2675 ****         6.5000  20.0000  28.5000 Du        
   2676 ****         6.5000  20.0000  28.7500 Du        
   2677 ****         6.5000  20.2500  25.7500 Du        
   2678 ****         6.5000  20.2500  26.0000 Du        
   2679 ****         6.5000  20.2500  26.2500 Du        
   2680 ****         6.5000  20.2500  26.5000 Du        
   2681 ****         6.5000  20.2500  26.7500 Du        
   2682 ****         6.5000  20.2500  27.0000 Du        
   2683 ****         6.5000  20.2500  27.2500 Du        
   2684 ****         6.5000  20.2500  27.5000 Du        
   2685 ****         6.5000  20.2500  27.7500 Du        
   2686 ****         6.5000  20.2500  28.0000 Du        
   2687 ****         6.5000  20.2500  28.2500 Du        
   2688 ****         6.5000  20.2500  28.5000 Du        
   2689 ****         6.5000  20.2500  28.7500 Du        
   2690 ****         6.5000  20.5000  25.7500 Du        
   2691 ****         6.5000  20.5000  26.0000 Du        
   2692 ****         6.5000  20.5000  26.2500 Du        
   2693 ****         6.5000  20.5000  26.5000 Du        
   2694 ****         6.5000  20.5000  26.7500 Du        
   2695 ****         6.5000  20.5000  27.0000 Du        
   2696 ****         6.5000  20.5000  27.2500 Du        
   2697 ****         6.5000  20.5000  27.5000 Du        
   2698 ****         6.5000  20.5000  27.7500 Du        
   2699 ****         6.5000  20.5000  28.0000 Du        
   2700 ****         6.5000  20.5000  28.2500 Du        
   2701 ****         6.5000  20.5000  28.5000 Du        
   2702 ****         6.5000  20.5000  28.7500 Du        
   2703 ****         6.5000  20.7500  25.2500 Du        
   2704 ****         6.5000  20.7500  25.7500 Du        
   2705 ****         6.5000  20.7500  26.0000 Du        
   2706 ****         6.5000  20.7500  26.2500 Du        
   2707 ****         6.5000  20.7500  26.5000 Du        
   2708 ****         6.5000  20.7500  26.7500 Du        
   2709 ****         6.5000  20.7500  27.0000 Du        
   2710 ****         6.5000  20.7500  27.2500 Du        
   2711 ****         6.5000  20.7500  27.5000 Du        
   2712 ****         6.5000  20.7500  27.7500 Du        
   2713 ****         6.5000  20.7500  28.0000 Du        
   2714 ****         6.5000  20.7500  28.2500 Du        
   2715 ****         6.5000  20.7500  28.5000 Du        
   2716 ****         6.5000  20.7500  28.7500 Du        
   2717 ****         6.5000  21.0000  25.2500 Du        
   2718 ****         6.5000  21.0000  25.5000 Du        
   2719 ****         6.5000  21.0000  25.7500 Du        
   2720 ****         6.5000  21.0000  26.0000 Du        
   2721 ****         6.5000  21.0000  26.2500 Du        
   2722 ****         6.5000  21.0000  26.5000 Du        
   2723 ****         6.5000  21.0000  26.7500 Du        
   2724 ****         6.5000  21.0000  27.0000 Du        
   2725 ****         6.5000  21.0000  27.2500 Du        
   2726 ****         6.5000  21.0000  27.5000 Du        
   2727 ****         6.5000  21.0000  27.7500 Du        
   2728 ****         6.5000  21.0000  28.0000 Du        
   2729 ****         6.5000  21.0000  28.2500 Du        
   2730 ****         6.5000  21.0000  28.5000 Du        
   2731 ****         6.5000  21.2500  25.2500 Du        
   2732 ****         6.5000  21.2500  25.5000 Du        
   2733 ****         6.5000  21.2500  25.7500 Du        
   2734 ****         6.5000  21.2500  26.0000 Du        
   2735 ****         6.5000  21.2500  26.2500 Du        
   2736 ****         6.5000  21.2500  26.5000 Du        
   2737 ****         6.5000  21.2500  26.7500 Du        
   2738 ****         6.5000  21.2500  27.0000 Du        
   2739 ****         6.5000  21.2500  27.2500 Du        
   2740 ****         6.5000  21.2500  27.5000 Du        
   2741 ****         6.5000  21.2500  27.7500 Du        
   2742 ****         6.5000  21.2500  28.0000 Du        
   2743 ****         6.5000  21.2500  28.2500 Du        
   2744 ****         6.5000  21.5000  25.2500 Du        
   2745 ****         6.5000  21.5000  25.5000 Du        
   2746 ****         6.5000  21.5000  25.7500 Du        
   2747 ****         6.5000  21.5000  26.0000 Du        
   2748 ****         6.5000  21.5000  26.2500 Du        
   2749 ****         6.5000  21.5000  26.5000 Du        
   2750 ****         6.5000  21.5000  26.7500 Du        
   2751 ****         6.5000  21.5000  27.0000 Du        
   2752 ****         6.5000  21.5000  27.2500 Du        
   2753 ****         6.5000  21.5000  27.5000 Du        
   2754 ****         6.5000  21.5000  27.7500 Du        
   2755 ****         6.5000  21.5000  28.0000 Du        
   2756 ****         6.5000  21.7500  25.0000 Du        
   2757 ****         6.5000  21.7500  25.2500 Du        
   2758 ****         6.5000  21.7500  25.5000 Du        
   2759 ****         6.5000  21.7500  25.7500 Du        
   2760 ****         6.5000  21.7500  26.0000 Du        
   2761 ****         6.5000  21.7500  26.2500 Du        
   2762 ****         6.5000  21.7500  26.5000 Du        
   2763 ****         6.5000  21.7500  26.7500 Du        
   2764 ****         6.5000  21.7500  27.0000 Du        
   2765 ****         6.5000  21.7500  27.2500 Du        
   2766 ****         6.5000  21.7500  27.5000 Du        
   2767 ****         6.5000  21.7500  27.7500 Du        
   2768 ****         6.5000  22.0000  25.0000 Du        
   2769 ****         6.5000  22.0000  25.2500 Du        
   2770 ****         6.5000  22.0000  25.5000 Du        
   2771 ****         6.5000  22.0000  25.7500 Du        
   2772 ****         6.5000  22.0000  26.0000 Du        
   2773 ****         6.5000  22.0000  26.2500 Du        
   2774 ****         6.5000  22.0000  26.5000 Du        
   2775 ****         6.5000  22.0000  26.7500 Du        
   2776 ****         6.5000  22.0000  27.0000 Du        
   2777 ****         6.5000  22.0000  27.2500 Du        
   2778 ****         6.5000  22.0000  27.5000 Du        
   2779 ****         6.5000  22.2500  25.0000 Du        
   2780 ****         6.5000  22.2500  25.2500 Du        
   2781 ****         6.5000  22.2500  25.5000 Du        
   2782 ****         6.5000  22.2500  25.7500 Du        
   2783 ****         6.5000  22.2500  26.0000 Du        
   2784 ****         6.5000  22.2500  26.2500 Du        
   2785 ****         6.5000  22.2500  26.5000 Du        
   2786 ****         6.5000  22.2500  26.7500 Du        
   2787 ****         6.5000  22.2500  27.0000 Du        
   2788 ****         6.5000  22.5000  25.2500 Du        
   2789 ****         6.5000  22.5000  25.5000 Du        
   2790 ****         6.5000  22.5000  25.7500 Du        
   2791 ****         6.5000  22.5000  26.0000 Du        
   2792 ****         6.5000  22.5000  26.2500 Du        
   2793 ****         6.5000  22.5000  26.5000 Du        
   2794 ****         6.5000  22.5000  26.7500 Du        
   2795 ****         6.5000  22.5000  27.0000 Du        
   2796 ****         6.5000  22.7500  25.2500 Du        
   2797 ****         6.5000  22.7500  25.5000 Du        
   2798 ****         6.5000  22.7500  25.7500 Du        
   2799 ****         6.5000  22.7500  26.0000 Du        
   2800 ****         6.5000  22.7500  26.2500 Du        
   2801 ****         6.5000  22.7500  26.5000 Du        
   2802 ****         6.5000  22.7500  26.7500 Du        
   2803 ****         6.5000  23.0000  25.2500 Du        
   2804 ****         6.5000  23.0000  25.5000 Du        
   2805 ****         6.5000  23.0000  25.7500 Du        
   2806 ****         6.5000  23.0000  26.0000 Du        
   2807 ****         6.5000  23.0000  26.2500 Du        
   2808 ****         6.5000  23.0000  26.5000 Du        
   2809 ****         6.5000  23.0000  26.7500 Du        
   2810 ****         6.5000  23.2500  25.5000 Du        
   2811 ****         6.5000  23.2500  25.7500 Du        
   2812 ****         6.5000  23.2500  26.0000 Du        
   2813 ****         6.5000  23.2500  26.2500 Du        
   2814 ****         6.5000  23.5000  25.7500 Du        
   2815 ****         6.5000  23.5000  26.0000 Du        
   2816 ****         6.5000  23.7500  25.7500 Du        
   2817 ****         6.5000  23.7500  26.0000 Du        
   2818 ****         6.5000  25.0000  25.7500 Du        
   2819 ****         6.5000  25.2500  25.5000 Du        
   2820 ****         6.5000  25.2500  25.7500 Du        
   2821 ****         6.5000  25.2500  26.0000 Du        
   2822 ****         6.5000  25.5000  25.5000 Du        
   2823 ****         6.5000  25.5000  25.7500 Du        
   2824 ****         6.5000  25.5000  26.0000 Du        
   2825 ****         6.5000  25.5000  26.2500 Du        
   2826 ****         6.5000  25.7500  25.5000 Du        
   2827 ****         6.5000  25.7500  25.7500 Du        
   2828 ****         6.5000  25.7500  26.0000 Du        
   2829 ****         6.5000  25.7500  26.2500 Du        
   2830 ****         6.5000  26.0000  25.2500 Du        
   2831 ****         6.5000  26.0000  25.5000 Du        
   2832 ****         6.5000  26.0000  25.7500 Du        
   2833 ****         6.5000  26.0000  26.0000 Du        
   2834 ****         6.5000  26.0000  26.2500 Du        
   2835 ****         6.5000  26.0000  26.5000 Du        
   2836 ****         6.5000  26.2500  25.2500 Du        
   2837 ****         6.5000  26.2500  25.5000 Du        
   2838 ****         6.5000  26.2500  25.7500 Du        
   2839 ****         6.5000  26.2500  26.0000 Du        
   2840 ****         6.5000  26.2500  26.2500 Du        
   2841 ****         6.5000  26.2500  26.5000 Du        
   2842 ****         6.5000  26.2500  26.7500 Du        
   2843 ****         6.5000  26.5000  25.0000 Du        
   2844 ****         6.5000  26.5000  25.2500 Du        
   2845 ****         6.5000  26.5000  25.5000 Du        
   2846 ****         6.5000  26.5000  25.7500 Du        
   2847 ****         6.5000  26.5000  26.0000 Du        
   2848 ****         6.5000  26.5000  26.2500 Du        
   2849 ****         6.5000  26.5000  26.5000 Du        
   2850 ****         6.5000  26.5000  26.7500 Du        
   2851 ****         6.5000  26.7500  24.7500 Du        
   2852 ****         6.5000  26.7500  25.0000 Du        
   2853 ****         6.5000  26.7500  25.2500 Du        
   2854 ****         6.5000  26.7500  25.5000 Du        
   2855 ****         6.5000  26.7500  25.7500 Du        
   2856 ****         6.5000  26.7500  26.0000 Du        
   2857 ****         6.5000  26.7500  26.2500 Du        
   2858 ****         6.5000  26.7500  26.5000 Du        
   2859 ****         6.5000  26.7500  26.7500 Du        
   2860 ****         6.5000  26.7500  27.0000 Du        
   2861 ****         6.5000  26.7500  27.2500 Du        
   2862 ****         6.5000  27.0000  24.7500 Du        
   2863 ****         6.5000  27.0000  25.0000 Du        
   2864 ****         6.5000  27.0000  25.2500 Du        
   2865 ****         6.5000  27.0000  25.5000 Du        
   2866 ****         6.5000  27.0000  25.7500 Du        
   2867 ****         6.5000  27.0000  26.0000 Du        
   2868 ****         6.5000  27.0000  26.2500 Du        
   2869 ****         6.5000  27.0000  26.5000 Du        
   2870 ****         6.5000  27.0000  26.7500 Du        
   2871 ****         6.5000  27.0000  27.0000 Du        
   2872 ****         6.5000  27.0000  27.2500 Du        
   2873 ****         6.5000  27.0000  27.5000 Du        
   2874 ****         6.5000  27.2500  24.5000 Du        
   2875 ****         6.5000  27.2500  24.7500 Du        
   2876 ****         6.5000  27.2500  25.0000 Du        
   2877 ****         6.5000  27.2500  25.2500 Du        
   2878 ****         6.5000  27.2500  25.5000 Du        
   2879 ****         6.5000  27.2500  25.7500 Du        
   2880 ****         6.5000  27.2500  26.0000 Du        
   2881 ****         6.5000  27.2500  26.2500 Du        
   2882 ****         6.5000  27.2500  26.5000 Du        
   2883 ****         6.5000  27.2500  26.7500 Du        
   2884 ****         6.5000  27.2500  27.0000 Du        
   2885 ****         6.5000  27.2500  27.2500 Du        
   2886 ****         6.5000  27.2500  27.5000 Du        
   2887 ****         6.5000  27.2500  27.7500 Du        
   2888 ****         6.5000  27.5000  24.2500 Du        
   2889 ****         6.5000  27.5000  24.5000 Du        
   2890 ****         6.5000  27.5000  24.7500 Du        
   2891 ****         6.5000  27.5000  25.0000 Du        
   2892 ****         6.5000  27.5000  25.2500 Du        
   2893 ****         6.5000  27.5000  25.5000 Du        
   2894 ****         6.5000  27.5000  25.7500 Du        
   2895 ****         6.5000  27.5000  26.0000 Du        
   2896 ****         6.5000  27.5000  26.2500 Du        
   2897 ****         6.5000  27.5000  26.5000 Du        
   2898 ****         6.5000  27.5000  26.7500 Du        
   2899 ****         6.5000  27.5000  27.0000 Du        
   2900 ****         6.5000  27.5000  27.2500 Du        
   2901 ****         6.5000  27.5000  27.5000 Du        
   2902 ****         6.5000  27.5000  27.7500 Du        
   2903 ****         6.5000  27.5000  28.0000 Du        
   2904 ****         6.5000  27.7500  24.2500 Du        
   2905 ****         6.5000  27.7500  24.5000 Du        
   2906 ****         6.5000  27.7500  24.7500 Du        
   2907 ****         6.5000  27.7500  25.0000 Du        
   2908 ****         6.5000  27.7500  25.2500 Du        
   2909 ****         6.5000  27.7500  25.5000 Du        
   2910 ****         6.5000  27.7500  25.7500 Du        
   2911 ****         6.5000  27.7500  26.0000 Du        
   2912 ****         6.5000  27.7500  26.2500 Du        
   2913 ****         6.5000  27.7500  26.5000 Du        
   2914 ****         6.5000  27.7500  26.7500 Du        
   2915 ****         6.5000  27.7500  27.0000 Du        
   2916 ****         6.5000  27.7500  27.2500 Du        
   2917 ****         6.5000  27.7500  27.5000 Du        
   2918 ****         6.5000  27.7500  27.7500 Du        
   2919 ****         6.5000  27.7500  28.0000 Du        
   2920 ****         6.5000  27.7500  28.2500 Du        
   2921 ****         6.5000  28.0000  24.0000 Du        
   2922 ****         6.5000  28.0000  24.2500 Du        
   2923 ****         6.5000  28.0000  24.5000 Du        
   2924 ****         6.5000  28.0000  24.7500 Du        
   2925 ****         6.5000  28.0000  25.0000 Du        
   2926 ****         6.5000  28.0000  25.2500 Du        
   2927 ****         6.5000  28.0000  25.5000 Du        
   2928 ****         6.5000  28.0000  25.7500 Du        
   2929 ****         6.5000  28.0000  26.0000 Du        
   2930 ****         6.5000  28.0000  26.2500 Du        
   2931 ****         6.5000  28.0000  26.5000 Du        
   2932 ****         6.5000  28.0000  26.7500 Du        
   2933 ****         6.5000  28.0000  27.0000 Du        
   2934 ****         6.5000  28.0000  27.2500 Du        
   2935 ****         6.5000  28.0000  27.5000 Du        
   2936 ****         6.5000  28.0000  27.7500 Du        
   2937 ****         6.5000  28.0000  28.0000 Du        
   2938 ****         6.5000  28.0000  28.2500 Du        
   2939 ****         6.5000  28.0000  28.5000 Du        
   2940 ****         6.5000  28.2500  24.2500 Du        
   2941 ****         6.5000  28.2500  24.5000 Du        
   2942 ****         6.5000  28.2500  24.7500 Du        
   2943 ****         6.5000  28.2500  25.0000 Du        
   2944 ****         6.5000  28.2500  25.2500 Du        
   2945 ****         6.5000  28.2500  25.5000 Du        
   2946 ****         6.5000  28.2500  25.7500 Du        
   2947 ****         6.5000  28.2500  26.0000 Du        
   2948 ****         6.5000  28.2500  26.2500 Du        
   2949 ****         6.5000  28.2500  26.5000 Du        
   2950 ****         6.5000  28.2500  26.7500 Du        
   2951 ****         6.5000  28.2500  27.0000 Du        
   2952 ****         6.5000  28.2500  27.2500 Du        
   2953 ****         6.5000  28.2500  27.5000 Du        
   2954 ****         6.5000  28.2500  27.7500 Du        
   2955 ****         6.5000  28.2500  28.0000 Du        
   2956 ****         6.5000  28.2500  28.2500 Du        
   2957 ****         6.5000  28.2500  28.5000 Du        
   2958 ****         6.5000  28.5000  24.5000 Du        
   2959 ****         6.5000  28.5000  24.7500 Du        
   2960 ****         6.5000  28.5000  25.0000 Du        
   2961 ****         6.5000  28.5000  25.2500 Du        
   2962 ****         6.5000  28.5000  25.5000 Du        
   2963 ****         6.5000  28.5000  25.7500 Du        
   2964 ****         6.5000  28.5000  26.0000 Du        
   2965 ****         6.5000  28.5000  26.2500 Du        
   2966 ****         6.5000  28.5000  26.5000 Du        
   2967 ****         6.5000  28.5000  26.7500 Du        
   2968 ****         6.5000  28.5000  27.0000 Du        
   2969 ****         6.5000  28.5000  27.2500 Du        
   2970 ****         6.5000  28.5000  27.5000 Du        
   2971 ****         6.5000  28.5000  27.7500 Du        
   2972 ****         6.5000  28.5000  28.0000 Du        
   2973 ****         6.5000  28.5000  28.2500 Du        
   2974 ****         6.5000  28.7500  25.0000 Du        
   2975 ****         6.5000  28.7500  25.2500 Du        
   2976 ****         6.5000  28.7500  25.5000 Du        
   2977 ****         6.5000  28.7500  25.7500 Du        
   2978 ****         6.5000  28.7500  26.0000 Du        
   2979 ****         6.5000  28.7500  26.2500 Du        
   2980 ****         6.5000  28.7500  26.5000 Du        
   2981 ****         6.5000  28.7500  26.7500 Du        
   2982 ****         6.5000  28.7500  27.0000 Du        
   2983 ****         6.5000  28.7500  27.2500 Du        
   2984 ****         6.5000  28.7500  27.5000 Du        
   2985 ****         6.5000  28.7500  27.7500 Du        
   2986 ****         6.5000  28.7500  28.0000 Du        
   2987 ****         6.5000  29.0000  25.5000 Du        
   2988 ****         6.5000  29.0000  25.7500 Du        
   2989 ****         6.5000  29.0000  26.0000 Du        
   2990 ****         6.5000  29.0000  26.2500 Du        
   2991 ****         6.5000  29.0000  26.5000 Du        
   2992 ****         6.5000  29.0000  26.7500 Du        
   2993 ****         6.5000  29.0000  27.0000 Du        
   2994 ****         6.5000  29.0000  27.2500 Du        
   2995 ****         6.5000  29.0000  27.5000 Du        
   2996 ****         6.5000  29.0000  27.7500 Du        
   2997 ****         6.5000  29.2500  26.0000 Du        
   2998 ****         6.5000  29.2500  26.2500 Du        
   2999 ****         6.5000  29.2500  26.5000 Du        
   3000 ****         6.5000  29.2500  26.7500 Du        
   3001 ****         6.5000  29.2500  27.0000 Du        
   3002 ****         6.5000  29.2500  27.2500 Du        
   3003 ****         6.5000  29.2500  27.5000 Du        
   3004 ****         6.5000  29.5000  26.5000 Du        
   3005 ****         6.5000  29.5000  26.7500 Du        
   3006 ****         6.5000  29.5000  27.0000 Du        
   3007 ****         6.7500  19.2500  27.2500 Du        
   3008 ****         6.7500  19.2500  27.7500 Du        
   3009 ****         6.7500  19.2500  28.0000 Du        
   3010 ****         6.7500  19.2500  28.2500 Du        
   3011 ****         6.7500  19.2500  28.5000 Du        
   3012 ****         6.7500  19.5000  26.7500 Du        
   3013 ****         6.7500  19.5000  27.0000 Du        
   3014 ****         6.7500  19.5000  27.2500 Du        
   3015 ****         6.7500  19.5000  27.7500 Du        
   3016 ****         6.7500  19.5000  28.0000 Du        
   3017 ****         6.7500  19.5000  28.2500 Du        
   3018 ****         6.7500  19.5000  28.5000 Du        
   3019 ****         6.7500  19.5000  28.7500 Du        
   3020 ****         6.7500  19.7500  26.5000 Du        
   3021 ****         6.7500  19.7500  26.7500 Du        
   3022 ****         6.7500  19.7500  27.0000 Du        
   3023 ****         6.7500  19.7500  27.2500 Du        
   3024 ****         6.7500  19.7500  27.5000 Du        
   3025 ****         6.7500  19.7500  27.7500 Du        
   3026 ****         6.7500  19.7500  28.0000 Du        
   3027 ****         6.7500  19.7500  28.2500 Du        
   3028 ****         6.7500  19.7500  28.5000 Du        
   3029 ****         6.7500  19.7500  28.7500 Du        
   3030 ****         6.7500  19.7500  29.0000 Du        
   3031 ****         6.7500  20.0000  26.5000 Du        
   3032 ****         6.7500  20.0000  26.7500 Du        
   3033 ****         6.7500  20.0000  27.0000 Du        
   3034 ****         6.7500  20.0000  27.2500 Du        
   3035 ****         6.7500  20.0000  27.5000 Du        
   3036 ****         6.7500  20.0000  27.7500 Du        
   3037 ****         6.7500  20.0000  28.0000 Du        
   3038 ****         6.7500  20.0000  28.2500 Du        
   3039 ****         6.7500  20.0000  28.5000 Du        
   3040 ****         6.7500  20.0000  28.7500 Du        
   3041 ****         6.7500  20.0000  29.0000 Du        
   3042 ****         6.7500  20.2500  25.7500 Du        
   3043 ****         6.7500  20.2500  26.0000 Du        
   3044 ****         6.7500  20.2500  26.2500 Du        
   3045 ****         6.7500  20.2500  26.5000 Du        
   3046 ****         6.7500  20.2500  26.7500 Du        
   3047 ****         6.7500  20.2500  27.0000 Du        
   3048 ****         6.7500  20.2500  27.2500 Du        
   3049 ****         6.7500  20.2500  27.5000 Du        
   3050 ****         6.7500  20.2500  27.7500 Du        
   3051 ****         6.7500  20.2500  28.0000 Du        
   3052 ****         6.7500  20.2500  28.2500 Du        
   3053 ****         6.7500  20.2500  28.5000 Du        
   3054 ****         6.7500  20.2500  28.7500 Du        
   3055 ****         6.7500  20.2500  29.0000 Du        
   3056 ****         6.7500  20.5000  25.0000 Du        
   3057 ****         6.7500  20.5000  25.2500 Du        
   3058 ****         6.7500  20.5000  26.0000 Du        
   3059 ****         6.7500  20.5000  26.2500 Du        
   3060 ****         6.7500  20.5000  26.7500 Du        
   3061 ****         6.7500  20.5000  27.0000 Du        
   3062 ****         6.7500  20.5000  27.2500 Du        
   3063 ****         6.7500  20.5000  27.5000 Du        
   3064 ****         6.7500  20.5000  27.7500 Du        
   3065 ****         6.7500  20.5000  28.0000 Du        
   3066 ****         6.7500  20.5000  28.2500 Du        
   3067 ****         6.7500  20.5000  28.5000 Du        
   3068 ****         6.7500  20.5000  28.7500 Du        
   3069 ****         6.7500  20.5000  29.0000 Du        
   3070 ****         6.7500  20.7500  25.0000 Du        
   3071 ****         6.7500  20.7500  25.2500 Du        
   3072 ****         6.7500  20.7500  25.7500 Du        
   3073 ****         6.7500  20.7500  26.0000 Du        
   3074 ****         6.7500  20.7500  26.2500 Du        
   3075 ****         6.7500  20.7500  26.5000 Du        
   3076 ****         6.7500  20.7500  26.7500 Du        
   3077 ****         6.7500  20.7500  27.0000 Du        
   3078 ****         6.7500  20.7500  27.2500 Du        
   3079 ****         6.7500  20.7500  27.5000 Du        
   3080 ****         6.7500  20.7500  27.7500 Du        
   3081 ****         6.7500  20.7500  28.0000 Du        
   3082 ****         6.7500  20.7500  28.2500 Du        
   3083 ****         6.7500  20.7500  28.5000 Du        
   3084 ****         6.7500  20.7500  28.7500 Du        
   3085 ****         6.7500  21.0000  25.0000 Du        
   3086 ****         6.7500  21.0000  25.2500 Du        
   3087 ****         6.7500  21.0000  25.7500 Du        
   3088 ****         6.7500  21.0000  26.0000 Du        
   3089 ****         6.7500  21.0000  26.2500 Du        
   3090 ****         6.7500  21.0000  26.5000 Du        
   3091 ****         6.7500  21.0000  26.7500 Du        
   3092 ****         6.7500  21.0000  27.0000 Du        
   3093 ****         6.7500  21.0000  27.2500 Du        
   3094 ****         6.7500  21.0000  27.5000 Du        
   3095 ****         6.7500  21.0000  27.7500 Du        
   3096 ****         6.7500  21.0000  28.0000 Du        
   3097 ****         6.7500  21.0000  28.2500 Du        
   3098 ****         6.7500  21.0000  28.5000 Du        
   3099 ****         6.7500  21.0000  28.7500 Du        
   3100 ****         6.7500  21.2500  25.0000 Du        
   3101 ****         6.7500  21.2500  25.2500 Du        
   3102 ****         6.7500  21.2500  25.7500 Du        
   3103 ****         6.7500  21.2500  26.0000 Du        
   3104 ****         6.7500  21.2500  26.2500 Du        
   3105 ****         6.7500  21.2500  26.5000 Du        
   3106 ****         6.7500  21.2500  26.7500 Du        
   3107 ****         6.7500  21.2500  27.0000 Du        
   3108 ****         6.7500  21.2500  27.2500 Du        
   3109 ****         6.7500  21.2500  27.5000 Du        
   3110 ****         6.7500  21.2500  27.7500 Du        
   3111 ****         6.7500  21.2500  28.0000 Du        
   3112 ****         6.7500  21.2500  28.2500 Du        
   3113 ****         6.7500  21.2500  28.5000 Du        
   3114 ****         6.7500  21.5000  25.0000 Du        
   3115 ****         6.7500  21.5000  25.2500 Du        
   3116 ****         6.7500  21.5000  25.5000 Du        
   3117 ****         6.7500  21.5000  25.7500 Du        
   3118 ****         6.7500  21.5000  26.0000 Du        
   3119 ****         6.7500  21.5000  26.2500 Du        
   3120 ****         6.7500  21.5000  26.5000 Du        
   3121 ****         6.7500  21.5000  26.7500 Du        
   3122 ****         6.7500  21.5000  27.0000 Du        
   3123 ****         6.7500  21.5000  27.2500 Du        
   3124 ****         6.7500  21.5000  27.5000 Du        
   3125 ****         6.7500  21.5000  27.7500 Du        
   3126 ****         6.7500  21.5000  28.0000 Du        
   3127 ****         6.7500  21.7500  25.0000 Du        
   3128 ****         6.7500  21.7500  25.2500 Du        
   3129 ****         6.7500  21.7500  25.5000 Du        
   3130 ****         6.7500  21.7500  25.7500 Du        
   3131 ****         6.7500  21.7500  26.0000 Du        
   3132 ****         6.7500  21.7500  26.2500 Du        
   3133 ****         6.7500  21.7500  26.5000 Du        
   3134 ****         6.7500  21.7500  26.7500 Du        
   3135 ****         6.7500  21.7500  27.0000 Du        
   3136 ****         6.7500  21.7500  27.2500 Du        
   3137 ****         6.7500  21.7500  27.5000 Du        
   3138 ****         6.7500  21.7500  27.7500 Du        
   3139 ****         6.7500  22.0000  25.0000 Du        
   3140 ****         6.7500  22.0000  25.2500 Du        
   3141 ****         6.7500  22.0000  25.5000 Du        
   3142 ****         6.7500  22.0000  25.7500 Du        
   3143 ****         6.7500  22.0000  26.0000 Du        
   3144 ****         6.7500  22.0000  26.2500 Du        
   3145 ****         6.7500  22.0000  26.5000 Du        
   3146 ****         6.7500  22.0000  26.7500 Du        
   3147 ****         6.7500  22.0000  27.0000 Du        
   3148 ****         6.7500  22.0000  27.2500 Du        
   3149 ****         6.7500  22.0000  27.5000 Du        
   3150 ****         6.7500  22.2500  25.0000 Du        
   3151 ****         6.7500  22.2500  25.2500 Du        
   3152 ****         6.7500  22.2500  25.5000 Du        
   3153 ****         6.7500  22.2500  25.7500 Du        
   3154 ****         6.7500  22.2500  26.0000 Du        
   3155 ****         6.7500  22.2500  26.2500 Du        
   3156 ****         6.7500  22.2500  26.5000 Du        
   3157 ****         6.7500  22.2500  26.7500 Du        
   3158 ****         6.7500  22.2500  27.0000 Du        
   3159 ****         6.7500  22.5000  25.0000 Du        
   3160 ****         6.7500  22.5000  25.2500 Du        
   3161 ****         6.7500  22.5000  25.5000 Du        
   3162 ****         6.7500  22.5000  25.7500 Du        
   3163 ****         6.7500  22.5000  26.0000 Du        
   3164 ****         6.7500  22.5000  26.2500 Du        
   3165 ****         6.7500  22.5000  26.5000 Du        
   3166 ****         6.7500  22.5000  26.7500 Du        
   3167 ****         6.7500  22.7500  25.0000 Du        
   3168 ****         6.7500  22.7500  25.2500 Du        
   3169 ****         6.7500  22.7500  25.5000 Du        
   3170 ****         6.7500  22.7500  25.7500 Du        
   3171 ****         6.7500  22.7500  26.0000 Du        
   3172 ****         6.7500  22.7500  26.2500 Du        
   3173 ****         6.7500  22.7500  26.5000 Du        
   3174 ****         6.7500  23.0000  25.0000 Du        
   3175 ****         6.7500  23.0000  25.2500 Du        
   3176 ****         6.7500  23.0000  25.5000 Du        
   3177 ****         6.7500  23.0000  25.7500 Du        
   3178 ****         6.7500  23.0000  26.0000 Du        
   3179 ****         6.7500  23.0000  26.2500 Du        
   3180 ****         6.7500  23.2500  24.7500 Du        
   3181 ****         6.7500  23.2500  25.0000 Du        
   3182 ****         6.7500  23.2500  25.2500 Du        
   3183 ****         6.7500  23.2500  25.5000 Du        
   3184 ****         6.7500  23.2500  25.7500 Du        
   3185 ****         6.7500  23.2500  26.0000 Du        
   3186 ****         6.7500  23.2500  26.2500 Du        
   3187 ****         6.7500  23.5000  24.7500 Du        
   3188 ****         6.7500  23.5000  25.0000 Du        
   3189 ****         6.7500  23.5000  25.2500 Du        
   3190 ****         6.7500  23.5000  25.5000 Du        
   3191 ****         6.7500  23.5000  25.7500 Du        
   3192 ****         6.7500  23.5000  26.0000 Du        
   3193 ****         6.7500  23.7500  24.7500 Du        
   3194 ****         6.7500  23.7500  25.0000 Du        
   3195 ****         6.7500  23.7500  25.2500 Du        
   3196 ****         6.7500  23.7500  25.5000 Du        
   3197 ****         6.7500  23.7500  25.7500 Du        
   3198 ****         6.7500  23.7500  26.0000 Du        
   3199 ****         6.7500  24.0000  24.7500 Du        
   3200 ****         6.7500  24.0000  25.0000 Du        
   3201 ****         6.7500  24.0000  25.2500 Du        
   3202 ****         6.7500  24.0000  25.5000 Du        
   3203 ****         6.7500  24.0000  25.7500 Du        
   3204 ****         6.7500  24.2500  25.0000 Du        
   3205 ****         6.7500  24.2500  25.2500 Du        
   3206 ****         6.7500  24.2500  25.5000 Du        
   3207 ****         6.7500  24.2500  25.7500 Du        
   3208 ****         6.7500  24.5000  25.2500 Du        
   3209 ****         6.7500  24.5000  25.7500 Du        
   3210 ****         6.7500  24.7500  25.0000 Du        
   3211 ****         6.7500  24.7500  25.2500 Du        
   3212 ****         6.7500  24.7500  25.7500 Du        
   3213 ****         6.7500  25.0000  25.0000 Du        
   3214 ****         6.7500  25.0000  25.2500 Du        
   3215 ****         6.7500  25.0000  25.5000 Du        
   3216 ****         6.7500  25.0000  25.7500 Du        
   3217 ****         6.7500  25.2500  25.0000 Du        
   3218 ****         6.7500  25.2500  25.2500 Du        
   3219 ****         6.7500  25.2500  25.5000 Du        
   3220 ****         6.7500  25.2500  25.7500 Du        
   3221 ****         6.7500  25.5000  25.0000 Du        
   3222 ****         6.7500  25.5000  25.2500 Du        
   3223 ****         6.7500  25.5000  25.5000 Du        
   3224 ****         6.7500  25.5000  25.7500 Du        
   3225 ****         6.7500  25.5000  26.0000 Du        
   3226 ****         6.7500  25.7500  17.2500 Du        
   3227 ****         6.7500  25.7500  25.0000 Du        
   3228 ****         6.7500  25.7500  25.2500 Du        
   3229 ****         6.7500  25.7500  25.5000 Du        
   3230 ****         6.7500  25.7500  25.7500 Du        
   3231 ****         6.7500  25.7500  26.0000 Du        
   3232 ****         6.7500  26.0000  17.7500 Du        
   3233 ****         6.7500  26.0000  18.0000 Du        
   3234 ****         6.7500  26.0000  18.2500 Du        
   3235 ****         6.7500  26.0000  25.0000 Du        
   3236 ****         6.7500  26.0000  25.2500 Du        
   3237 ****         6.7500  26.0000  25.5000 Du        
   3238 ****         6.7500  26.0000  25.7500 Du        
   3239 ****         6.7500  26.0000  26.0000 Du        
   3240 ****         6.7500  26.0000  26.2500 Du        
   3241 ****         6.7500  26.2500  18.0000 Du        
   3242 ****         6.7500  26.2500  18.2500 Du        
   3243 ****         6.7500  26.2500  18.5000 Du        
   3244 ****         6.7500  26.2500  18.7500 Du        
   3245 ****         6.7500  26.2500  25.0000 Du        
   3246 ****         6.7500  26.2500  25.2500 Du        
   3247 ****         6.7500  26.2500  25.5000 Du        
   3248 ****         6.7500  26.2500  25.7500 Du        
   3249 ****         6.7500  26.2500  26.0000 Du        
   3250 ****         6.7500  26.2500  26.2500 Du        
   3251 ****         6.7500  26.2500  26.5000 Du        
   3252 ****         6.7500  26.5000  18.0000 Du        
   3253 ****         6.7500  26.5000  18.2500 Du        
   3254 ****         6.7500  26.5000  18.5000 Du        
   3255 ****         6.7500  26.5000  18.7500 Du        
   3256 ****         6.7500  26.5000  19.0000 Du        
   3257 ****         6.7500  26.5000  24.7500 Du        
   3258 ****         6.7500  26.5000  25.0000 Du        
   3259 ****         6.7500  26.5000  25.2500 Du        
   3260 ****         6.7500  26.5000  25.5000 Du        
   3261 ****         6.7500  26.5000  25.7500 Du        
   3262 ****         6.7500  26.5000  26.0000 Du        
   3263 ****         6.7500  26.5000  26.2500 Du        
   3264 ****         6.7500  26.5000  26.5000 Du        
   3265 ****         6.7500  26.5000  26.7500 Du        
   3266 ****         6.7500  26.7500  18.2500 Du        
   3267 ****         6.7500  26.7500  18.5000 Du        
   3268 ****         6.7500  26.7500  18.7500 Du        
   3269 ****         6.7500  26.7500  19.0000 Du        
   3270 ****         6.7500  26.7500  24.7500 Du        
   3271 ****         6.7500  26.7500  25.0000 Du        
   3272 ****         6.7500  26.7500  25.2500 Du        
   3273 ****         6.7500  26.7500  25.5000 Du        
   3274 ****         6.7500  26.7500  25.7500 Du        
   3275 ****         6.7500  26.7500  26.0000 Du        
   3276 ****         6.7500  26.7500  26.2500 Du        
   3277 ****         6.7500  26.7500  26.5000 Du        
   3278 ****         6.7500  26.7500  26.7500 Du        
   3279 ****         6.7500  26.7500  27.0000 Du        
   3280 ****         6.7500  27.0000  18.5000 Du        
   3281 ****         6.7500  27.0000  18.7500 Du        
   3282 ****         6.7500  27.0000  19.0000 Du        
   3283 ****         6.7500  27.0000  19.2500 Du        
   3284 ****         6.7500  27.0000  24.2500 Du        
   3285 ****         6.7500  27.0000  24.5000 Du        
   3286 ****         6.7500  27.0000  24.7500 Du        
   3287 ****         6.7500  27.0000  25.0000 Du        
   3288 ****         6.7500  27.0000  25.2500 Du        
   3289 ****         6.7500  27.0000  25.5000 Du        
   3290 ****         6.7500  27.0000  25.7500 Du        
   3291 ****         6.7500  27.0000  26.0000 Du        
   3292 ****         6.7500  27.0000  26.2500 Du        
   3293 ****         6.7500  27.0000  26.5000 Du        
   3294 ****         6.7500  27.0000  26.7500 Du        
   3295 ****         6.7500  27.0000  27.0000 Du        
   3296 ****         6.7500  27.2500  18.5000 Du        
   3297 ****         6.7500  27.2500  18.7500 Du        
   3298 ****         6.7500  27.2500  19.0000 Du        
   3299 ****         6.7500  27.2500  24.0000 Du        
   3300 ****         6.7500  27.2500  24.2500 Du        
   3301 ****         6.7500  27.2500  24.5000 Du        
   3302 ****         6.7500  27.2500  24.7500 Du        
   3303 ****         6.7500  27.2500  25.0000 Du        
   3304 ****         6.7500  27.2500  25.2500 Du        
   3305 ****         6.7500  27.2500  25.5000 Du        
   3306 ****         6.7500  27.2500  25.7500 Du        
   3307 ****         6.7500  27.2500  26.0000 Du        
   3308 ****         6.7500  27.2500  26.2500 Du        
   3309 ****         6.7500  27.2500  26.5000 Du        
   3310 ****         6.7500  27.2500  26.7500 Du        
   3311 ****         6.7500  27.2500  27.0000 Du        
   3312 ****         6.7500  27.2500  27.2500 Du        
   3313 ****         6.7500  27.2500  27.5000 Du        
   3314 ****         6.7500  27.5000  24.0000 Du        
   3315 ****         6.7500  27.5000  24.2500 Du        
   3316 ****         6.7500  27.5000  24.5000 Du        
   3317 ****         6.7500  27.5000  24.7500 Du        
   3318 ****         6.7500  27.5000  25.0000 Du        
   3319 ****         6.7500  27.5000  25.2500 Du        
   3320 ****         6.7500  27.5000  25.5000 Du        
   3321 ****         6.7500  27.5000  25.7500 Du        
   3322 ****         6.7500  27.5000  26.0000 Du        
   3323 ****         6.7500  27.5000  26.2500 Du        
   3324 ****         6.7500  27.5000  26.5000 Du        
   3325 ****         6.7500  27.5000  26.7500 Du        
   3326 ****         6.7500  27.5000  27.0000 Du        
   3327 ****         6.7500  27.5000  27.2500 Du        
   3328 ****         6.7500  27.5000  27.5000 Du        
   3329 ****         6.7500  27.5000  27.7500 Du        
   3330 ****         6.7500  27.7500  23.7500 Du        
   3331 ****         6.7500  27.7500  24.0000 Du        
   3332 ****         6.7500  27.7500  24.2500 Du        
   3333 ****         6.7500  27.7500  24.5000 Du        
   3334 ****         6.7500  27.7500  24.7500 Du        
   3335 ****         6.7500  27.7500  25.0000 Du        
   3336 ****         6.7500  27.7500  25.2500 Du        
   3337 ****         6.7500  27.7500  25.5000 Du        
   3338 ****         6.7500  27.7500  25.7500 Du        
   3339 ****         6.7500  27.7500  26.0000 Du        
   3340 ****         6.7500  27.7500  26.2500 Du        
   3341 ****         6.7500  27.7500  26.5000 Du        
   3342 ****         6.7500  27.7500  26.7500 Du        
   3343 ****         6.7500  27.7500  27.0000 Du        
   3344 ****         6.7500  27.7500  27.2500 Du        
   3345 ****         6.7500  27.7500  27.5000 Du        
   3346 ****         6.7500  27.7500  27.7500 Du        
   3347 ****         6.7500  27.7500  28.0000 Du        
   3348 ****         6.7500  28.0000  23.7500 Du        
   3349 ****         6.7500  28.0000  24.0000 Du        
   3350 ****         6.7500  28.0000  24.2500 Du        
   3351 ****         6.7500  28.0000  24.5000 Du        
   3352 ****         6.7500  28.0000  24.7500 Du        
   3353 ****         6.7500  28.0000  25.0000 Du        
   3354 ****         6.7500  28.0000  25.2500 Du        
   3355 ****         6.7500  28.0000  25.5000 Du        
   3356 ****         6.7500  28.0000  25.7500 Du        
   3357 ****         6.7500  28.0000  26.0000 Du        
   3358 ****         6.7500  28.0000  26.2500 Du        
   3359 ****         6.7500  28.0000  26.5000 Du        
   3360 ****         6.7500  28.0000  26.7500 Du        
   3361 ****         6.7500  28.0000  27.0000 Du        
   3362 ****         6.7500  28.0000  27.2500 Du        
   3363 ****         6.7500  28.0000  27.5000 Du        
   3364 ****         6.7500  28.0000  27.7500 Du        
   3365 ****         6.7500  28.0000  28.0000 Du        
   3366 ****         6.7500  28.0000  28.2500 Du        
   3367 ****         6.7500  28.2500  23.7500 Du        
   3368 ****         6.7500  28.2500  24.0000 Du        
   3369 ****         6.7500  28.2500  24.2500 Du        
   3370 ****         6.7500  28.2500  24.5000 Du        
   3371 ****         6.7500  28.2500  24.7500 Du        
   3372 ****         6.7500  28.2500  25.0000 Du        
   3373 ****         6.7500  28.2500  25.2500 Du        
   3374 ****         6.7500  28.2500  25.5000 Du        
   3375 ****         6.7500  28.2500  25.7500 Du        
   3376 ****         6.7500  28.2500  26.0000 Du        
   3377 ****         6.7500  28.2500  26.2500 Du        
   3378 ****         6.7500  28.2500  26.5000 Du        
   3379 ****         6.7500  28.2500  26.7500 Du        
   3380 ****         6.7500  28.2500  27.0000 Du        
   3381 ****         6.7500  28.2500  27.2500 Du        
   3382 ****         6.7500  28.2500  27.5000 Du        
   3383 ****         6.7500  28.2500  27.7500 Du        
   3384 ****         6.7500  28.2500  28.0000 Du        
   3385 ****         6.7500  28.5000  24.0000 Du        
   3386 ****         6.7500  28.5000  24.2500 Du        
   3387 ****         6.7500  28.5000  24.5000 Du        
   3388 ****         6.7500  28.5000  24.7500 Du        
   3389 ****         6.7500  28.5000  25.0000 Du        
   3390 ****         6.7500  28.5000  25.2500 Du        
   3391 ****         6.7500  28.5000  25.5000 Du        
   3392 ****         6.7500  28.5000  25.7500 Du        
   3393 ****         6.7500  28.5000  26.0000 Du        
   3394 ****         6.7500  28.5000  26.2500 Du        
   3395 ****         6.7500  28.5000  26.5000 Du        
   3396 ****         6.7500  28.5000  26.7500 Du        
   3397 ****         6.7500  28.5000  27.0000 Du        
   3398 ****         6.7500  28.5000  27.2500 Du        
   3399 ****         6.7500  28.5000  27.5000 Du        
   3400 ****         6.7500  28.5000  27.7500 Du        
   3401 ****         6.7500  28.5000  28.0000 Du        
   3402 ****         6.7500  28.7500  24.7500 Du        
   3403 ****         6.7500  28.7500  25.0000 Du        
   3404 ****         6.7500  28.7500  25.2500 Du        
   3405 ****         6.7500  28.7500  25.5000 Du        
   3406 ****         6.7500  28.7500  25.7500 Du        
   3407 ****         6.7500  28.7500  26.0000 Du        
   3408 ****         6.7500  28.7500  26.2500 Du        
   3409 ****         6.7500  28.7500  26.5000 Du        
   3410 ****         6.7500  28.7500  26.7500 Du        
   3411 ****         6.7500  28.7500  27.0000 Du        
   3412 ****         6.7500  28.7500  27.2500 Du        
   3413 ****         6.7500  28.7500  27.5000 Du        
   3414 ****         6.7500  29.0000  25.2500 Du        
   3415 ****         6.7500  29.0000  25.5000 Du        
   3416 ****         6.7500  29.0000  25.7500 Du        
   3417 ****         6.7500  29.0000  26.0000 Du        
   3418 ****         6.7500  29.0000  26.2500 Du        
   3419 ****         6.7500  29.0000  26.5000 Du        
   3420 ****         6.7500  29.0000  26.7500 Du        
   3421 ****         6.7500  29.0000  27.0000 Du        
   3422 ****         6.7500  29.0000  27.2500 Du        
   3423 ****         6.7500  29.2500  25.7500 Du        
   3424 ****         6.7500  29.2500  26.0000 Du        
   3425 ****         6.7500  29.2500  26.2500 Du        
   3426 ****         6.7500  29.2500  26.5000 Du        
   3427 ****         6.7500  29.2500  26.7500 Du        
   3428 ****         6.7500  29.2500  27.0000 Du        
   3429 ****         7.0000  19.2500  28.2500 Du        
   3430 ****         7.0000  19.2500  28.5000 Du        
   3431 ****         7.0000  19.5000  26.7500 Du        
   3432 ****         7.0000  19.5000  28.5000 Du        
   3433 ****         7.0000  19.5000  28.7500 Du        
   3434 ****         7.0000  19.5000  29.0000 Du        
   3435 ****         7.0000  19.7500  26.7500 Du        
   3436 ****         7.0000  19.7500  27.0000 Du        
   3437 ****         7.0000  19.7500  27.2500 Du        
   3438 ****         7.0000  19.7500  27.7500 Du        
   3439 ****         7.0000  19.7500  28.0000 Du        
   3440 ****         7.0000  19.7500  28.2500 Du        
   3441 ****         7.0000  19.7500  28.5000 Du        
   3442 ****         7.0000  19.7500  28.7500 Du        
   3443 ****         7.0000  19.7500  29.0000 Du        
   3444 ****         7.0000  19.7500  29.2500 Du        
   3445 ****         7.0000  20.0000  26.5000 Du        
   3446 ****         7.0000  20.0000  26.7500 Du        
   3447 ****         7.0000  20.0000  27.0000 Du        
   3448 ****         7.0000  20.0000  27.2500 Du        
   3449 ****         7.0000  20.0000  27.5000 Du        
   3450 ****         7.0000  20.0000  27.7500 Du        
   3451 ****         7.0000  20.0000  28.0000 Du        
   3452 ****         7.0000  20.0000  28.2500 Du        
   3453 ****         7.0000  20.0000  28.5000 Du        
   3454 ****         7.0000  20.0000  28.7500 Du        
   3455 ****         7.0000  20.0000  29.0000 Du        
   3456 ****         7.0000  20.0000  29.2500 Du        
   3457 ****         7.0000  20.2500  25.0000 Du        
   3458 ****         7.0000  20.2500  26.5000 Du        
   3459 ****         7.0000  20.2500  26.7500 Du        
   3460 ****         7.0000  20.2500  27.0000 Du        
   3461 ****         7.0000  20.2500  27.2500 Du        
   3462 ****         7.0000  20.2500  27.5000 Du        
   3463 ****         7.0000  20.2500  27.7500 Du        
   3464 ****         7.0000  20.2500  28.0000 Du        
   3465 ****         7.0000  20.2500  28.2500 Du        
   3466 ****         7.0000  20.2500  28.5000 Du        
   3467 ****         7.0000  20.2500  28.7500 Du        
   3468 ****         7.0000  20.2500  29.0000 Du        
   3469 ****         7.0000  20.2500  29.2500 Du        
   3470 ****         7.0000  20.5000  25.0000 Du        
   3471 ****         7.0000  20.5000  26.0000 Du        
   3472 ****         7.0000  20.5000  27.0000 Du        
   3473 ****         7.0000  20.5000  27.5000 Du        
   3474 ****         7.0000  20.5000  27.7500 Du        
   3475 ****         7.0000  20.5000  28.0000 Du        
   3476 ****         7.0000  20.5000  28.2500 Du        
   3477 ****         7.0000  20.5000  28.5000 Du        
   3478 ****         7.0000  20.5000  28.7500 Du        
   3479 ****         7.0000  20.5000  29.0000 Du        
   3480 ****         7.0000  20.5000  29.2500 Du        
   3481 ****         7.0000  20.7500  25.0000 Du        
   3482 ****         7.0000  20.7500  25.2500 Du        
   3483 ****         7.0000  20.7500  26.0000 Du        
   3484 ****         7.0000  20.7500  26.2500 Du        
   3485 ****         7.0000  20.7500  26.7500 Du        
   3486 ****         7.0000  20.7500  27.0000 Du        
   3487 ****         7.0000  20.7500  27.2500 Du        
   3488 ****         7.0000  20.7500  27.5000 Du        
   3489 ****         7.0000  20.7500  27.7500 Du        
   3490 ****         7.0000  20.7500  28.0000 Du        
   3491 ****         7.0000  20.7500  28.2500 Du        
   3492 ****         7.0000  20.7500  28.5000 Du        
   3493 ****         7.0000  20.7500  28.7500 Du        
   3494 ****         7.0000  20.7500  29.0000 Du        
   3495 ****         7.0000  21.0000  25.0000 Du        
   3496 ****         7.0000  21.0000  25.2500 Du        
   3497 ****         7.0000  21.0000  25.7500 Du        
   3498 ****         7.0000  21.0000  26.0000 Du        
   3499 ****         7.0000  21.0000  26.2500 Du        
   3500 ****         7.0000  21.0000  26.7500 Du        
   3501 ****         7.0000  21.0000  27.0000 Du        
   3502 ****         7.0000  21.0000  27.2500 Du        
   3503 ****         7.0000  21.0000  27.5000 Du        
   3504 ****         7.0000  21.0000  27.7500 Du        
   3505 ****         7.0000  21.0000  28.0000 Du        
   3506 ****         7.0000  21.0000  28.2500 Du        
   3507 ****         7.0000  21.0000  28.5000 Du        
   3508 ****         7.0000  21.0000  28.7500 Du        
   3509 ****         7.0000  21.2500  25.0000 Du        
   3510 ****         7.0000  21.2500  25.2500 Du        
   3511 ****         7.0000  21.2500  25.7500 Du        
   3512 ****         7.0000  21.2500  26.0000 Du        
   3513 ****         7.0000  21.2500  26.5000 Du        
   3514 ****         7.0000  21.2500  26.7500 Du        
   3515 ****         7.0000  21.2500  27.0000 Du        
   3516 ****         7.0000  21.2500  27.2500 Du        
   3517 ****         7.0000  21.2500  27.5000 Du        
   3518 ****         7.0000  21.2500  27.7500 Du        
   3519 ****         7.0000  21.2500  28.0000 Du        
   3520 ****         7.0000  21.2500  28.2500 Du        
   3521 ****         7.0000  21.2500  28.5000 Du        
   3522 ****         7.0000  21.5000  25.7500 Du        
   3523 ****         7.0000  21.5000  26.0000 Du        
   3524 ****         7.0000  21.5000  26.2500 Du        
   3525 ****         7.0000  21.5000  26.5000 Du        
   3526 ****         7.0000  21.5000  26.7500 Du        
   3527 ****         7.0000  21.5000  27.0000 Du        
   3528 ****         7.0000  21.5000  27.2500 Du        
   3529 ****         7.0000  21.5000  27.5000 Du        
   3530 ****         7.0000  21.5000  27.7500 Du        
   3531 ****         7.0000  21.5000  28.0000 Du        
   3532 ****         7.0000  21.7500  25.0000 Du        
   3533 ****         7.0000  21.7500  25.2500 Du        
   3534 ****         7.0000  21.7500  25.5000 Du        
   3535 ****         7.0000  21.7500  25.7500 Du        
   3536 ****         7.0000  21.7500  26.0000 Du        
   3537 ****         7.0000  21.7500  26.2500 Du        
   3538 ****         7.0000  21.7500  26.5000 Du        
   3539 ****         7.0000  21.7500  26.7500 Du        
   3540 ****         7.0000  21.7500  27.0000 Du        
   3541 ****         7.0000  21.7500  27.2500 Du        
   3542 ****         7.0000  21.7500  27.5000 Du        
   3543 ****         7.0000  22.0000  25.0000 Du        
   3544 ****         7.0000  22.0000  25.2500 Du        
   3545 ****         7.0000  22.0000  25.5000 Du        
   3546 ****         7.0000  22.0000  25.7500 Du        
   3547 ****         7.0000  22.0000  26.0000 Du        
   3548 ****         7.0000  22.0000  26.2500 Du        
   3549 ****         7.0000  22.0000  26.5000 Du        
   3550 ****         7.0000  22.0000  26.7500 Du        
   3551 ****         7.0000  22.0000  27.0000 Du        
   3552 ****         7.0000  22.0000  27.2500 Du        
   3553 ****         7.0000  22.2500  25.0000 Du        
   3554 ****         7.0000  22.2500  25.2500 Du        
   3555 ****         7.0000  22.2500  25.5000 Du        
   3556 ****         7.0000  22.2500  25.7500 Du        
   3557 ****         7.0000  22.2500  26.0000 Du        
   3558 ****         7.0000  22.2500  26.2500 Du        
   3559 ****         7.0000  22.2500  26.5000 Du        
   3560 ****         7.0000  22.2500  26.7500 Du        
   3561 ****         7.0000  22.5000  25.0000 Du        
   3562 ****         7.0000  22.5000  25.2500 Du        
   3563 ****         7.0000  22.5000  25.5000 Du        
   3564 ****         7.0000  22.5000  25.7500 Du        
   3565 ****         7.0000  22.5000  26.0000 Du        
   3566 ****         7.0000  22.5000  26.2500 Du        
   3567 ****         7.0000  22.5000  26.5000 Du        
   3568 ****         7.0000  22.5000  26.7500 Du        
   3569 ****         7.0000  22.7500  25.0000 Du        
   3570 ****         7.0000  22.7500  25.2500 Du        
   3571 ****         7.0000  22.7500  25.5000 Du        
   3572 ****         7.0000  22.7500  25.7500 Du        
   3573 ****         7.0000  22.7500  26.0000 Du        
   3574 ****         7.0000  22.7500  26.2500 Du        
   3575 ****         7.0000  23.0000  24.7500 Du        
   3576 ****         7.0000  23.0000  25.0000 Du        
   3577 ****         7.0000  23.0000  25.2500 Du        
   3578 ****         7.0000  23.0000  25.5000 Du        
   3579 ****         7.0000  23.0000  25.7500 Du        
   3580 ****         7.0000  23.0000  26.0000 Du        
   3581 ****         7.0000  23.0000  26.2500 Du        
   3582 ****         7.0000  23.2500  24.7500 Du        
   3583 ****         7.0000  23.2500  25.0000 Du        
   3584 ****         7.0000  23.2500  25.2500 Du        
   3585 ****         7.0000  23.2500  25.5000 Du        
   3586 ****         7.0000  23.2500  25.7500 Du        
   3587 ****         7.0000  23.2500  26.0000 Du        
   3588 ****         7.0000  23.5000  24.7500 Du        
   3589 ****         7.0000  23.5000  25.0000 Du        
   3590 ****         7.0000  23.5000  25.2500 Du        
   3591 ****         7.0000  23.5000  25.5000 Du        
   3592 ****         7.0000  23.5000  25.7500 Du        
   3593 ****         7.0000  23.5000  26.0000 Du        
   3594 ****         7.0000  23.7500  24.5000 Du        
   3595 ****         7.0000  23.7500  24.7500 Du        
   3596 ****         7.0000  23.7500  25.0000 Du        
   3597 ****         7.0000  23.7500  25.2500 Du        
   3598 ****         7.0000  23.7500  25.5000 Du        
   3599 ****         7.0000  23.7500  25.7500 Du        
   3600 ****         7.0000  24.0000  24.5000 Du        
   3601 ****         7.0000  24.0000  24.7500 Du        
   3602 ****         7.0000  24.0000  25.0000 Du        
   3603 ****         7.0000  24.0000  25.2500 Du        
   3604 ****         7.0000  24.0000  25.5000 Du        
   3605 ****         7.0000  24.0000  25.7500 Du        
   3606 ****         7.0000  24.2500  24.7500 Du        
   3607 ****         7.0000  24.2500  25.0000 Du        
   3608 ****         7.0000  24.2500  25.2500 Du        
   3609 ****         7.0000  24.2500  25.5000 Du        
   3610 ****         7.0000  24.5000  24.7500 Du        
   3611 ****         7.0000  24.5000  25.0000 Du        
   3612 ****         7.0000  24.5000  25.2500 Du        
   3613 ****         7.0000  24.5000  25.5000 Du        
   3614 ****         7.0000  24.7500  24.7500 Du        
   3615 ****         7.0000  24.7500  25.0000 Du        
   3616 ****         7.0000  24.7500  25.2500 Du        
   3617 ****         7.0000  24.7500  25.5000 Du        
   3618 ****         7.0000  25.0000  24.7500 Du        
   3619 ****         7.0000  25.0000  25.0000 Du        
   3620 ****         7.0000  25.0000  25.2500 Du        
   3621 ****         7.0000  25.0000  25.5000 Du        
   3622 ****         7.0000  25.2500  24.7500 Du        
   3623 ****         7.0000  25.2500  25.0000 Du        
   3624 ****         7.0000  25.2500  25.2500 Du        
   3625 ****         7.0000  25.2500  25.5000 Du        
   3626 ****         7.0000  25.2500  25.7500 Du        
   3627 ****         7.0000  25.5000  17.0000 Du        
   3628 ****         7.0000  25.5000  17.2500 Du        
   3629 ****         7.0000  25.5000  25.0000 Du        
   3630 ****         7.0000  25.5000  25.2500 Du        
   3631 ****         7.0000  25.5000  25.5000 Du        
   3632 ****         7.0000  25.5000  25.7500 Du        
   3633 ****         7.0000  25.7500  17.0000 Du        
   3634 ****         7.0000  25.7500  17.2500 Du        
   3635 ****         7.0000  25.7500  17.5000 Du        
   3636 ****         7.0000  25.7500  17.7500 Du        
   3637 ****         7.0000  25.7500  24.7500 Du        
   3638 ****         7.0000  25.7500  25.0000 Du        
   3639 ****         7.0000  25.7500  25.2500 Du        
   3640 ****         7.0000  25.7500  25.5000 Du        
   3641 ****         7.0000  25.7500  25.7500 Du        
   3642 ****         7.0000  25.7500  26.0000 Du        
   3643 ****         7.0000  26.0000  17.0000 Du        
   3644 ****         7.0000  26.0000  17.2500 Du        
   3645 ****         7.0000  26.0000  17.5000 Du        
   3646 ****         7.0000  26.0000  17.7500 Du        
   3647 ****         7.0000  26.0000  18.0000 Du        
   3648 ****         7.0000  26.0000  18.2500 Du        
   3649 ****         7.0000  26.0000  18.5000 Du        
   3650 ****         7.0000  26.0000  24.7500 Du        
   3651 ****         7.0000  26.0000  25.0000 Du        
   3652 ****         7.0000  26.0000  25.2500 Du        
   3653 ****         7.0000  26.0000  25.5000 Du        
   3654 ****         7.0000  26.0000  25.7500 Du        
   3655 ****         7.0000  26.0000  26.0000 Du        
   3656 ****         7.0000  26.2500  17.0000 Du        
   3657 ****         7.0000  26.2500  17.2500 Du        
   3658 ****         7.0000  26.2500  17.5000 Du        
   3659 ****         7.0000  26.2500  17.7500 Du        
   3660 ****         7.0000  26.2500  18.0000 Du        
   3661 ****         7.0000  26.2500  18.2500 Du        
   3662 ****         7.0000  26.2500  18.5000 Du        
   3663 ****         7.0000  26.2500  18.7500 Du        
   3664 ****         7.0000  26.2500  19.0000 Du        
   3665 ****         7.0000  26.2500  24.7500 Du        
   3666 ****         7.0000  26.2500  25.0000 Du        
   3667 ****         7.0000  26.2500  25.2500 Du        
   3668 ****         7.0000  26.2500  25.5000 Du        
   3669 ****         7.0000  26.2500  25.7500 Du        
   3670 ****         7.0000  26.2500  26.0000 Du        
   3671 ****         7.0000  26.2500  26.2500 Du        
   3672 ****         7.0000  26.5000  17.2500 Du        
   3673 ****         7.0000  26.5000  17.5000 Du        
   3674 ****         7.0000  26.5000  17.7500 Du        
   3675 ****         7.0000  26.5000  18.0000 Du        
   3676 ****         7.0000  26.5000  18.2500 Du        
   3677 ****         7.0000  26.5000  18.5000 Du        
   3678 ****         7.0000  26.5000  18.7500 Du        
   3679 ****         7.0000  26.5000  19.0000 Du        
   3680 ****         7.0000  26.5000  19.2500 Du        
   3681 ****         7.0000  26.5000  24.2500 Du        
   3682 ****         7.0000  26.5000  24.5000 Du        
   3683 ****         7.0000  26.5000  24.7500 Du        
   3684 ****         7.0000  26.5000  25.0000 Du        
   3685 ****         7.0000  26.5000  25.2500 Du        
   3686 ****         7.0000  26.5000  25.5000 Du        
   3687 ****         7.0000  26.5000  25.7500 Du        
   3688 ****         7.0000  26.5000  26.0000 Du        
   3689 ****         7.0000  26.5000  26.2500 Du        
   3690 ****         7.0000  26.5000  26.5000 Du        
   3691 ****         7.0000  26.7500  17.2500 Du        
   3692 ****         7.0000  26.7500  17.5000 Du        
   3693 ****         7.0000  26.7500  17.7500 Du        
   3694 ****         7.0000  26.7500  18.0000 Du        
   3695 ****         7.0000  26.7500  18.2500 Du        
   3696 ****         7.0000  26.7500  18.5000 Du        
   3697 ****         7.0000  26.7500  18.7500 Du        
   3698 ****         7.0000  26.7500  19.0000 Du        
   3699 ****         7.0000  26.7500  19.2500 Du        
   3700 ****         7.0000  26.7500  24.0000 Du        
   3701 ****         7.0000  26.7500  24.2500 Du        
   3702 ****         7.0000  26.7500  24.5000 Du        
   3703 ****         7.0000  26.7500  24.7500 Du        
   3704 ****         7.0000  26.7500  25.0000 Du        
   3705 ****         7.0000  26.7500  25.2500 Du        
   3706 ****         7.0000  26.7500  25.5000 Du        
   3707 ****         7.0000  26.7500  25.7500 Du        
   3708 ****         7.0000  26.7500  26.0000 Du        
   3709 ****         7.0000  26.7500  26.2500 Du        
   3710 ****         7.0000  26.7500  26.5000 Du        
   3711 ****         7.0000  26.7500  26.7500 Du        
   3712 ****         7.0000  27.0000  17.7500 Du        
   3713 ****         7.0000  27.0000  18.0000 Du        
   3714 ****         7.0000  27.0000  18.2500 Du        
   3715 ****         7.0000  27.0000  18.5000 Du        
   3716 ****         7.0000  27.0000  18.7500 Du        
   3717 ****         7.0000  27.0000  19.0000 Du        
   3718 ****         7.0000  27.0000  19.2500 Du        
   3719 ****         7.0000  27.0000  19.5000 Du        
   3720 ****         7.0000  27.0000  23.7500 Du        
   3721 ****         7.0000  27.0000  24.0000 Du        
   3722 ****         7.0000  27.0000  24.2500 Du        
   3723 ****         7.0000  27.0000  24.5000 Du        
   3724 ****         7.0000  27.0000  24.7500 Du        
   3725 ****         7.0000  27.0000  25.0000 Du        
   3726 ****         7.0000  27.0000  25.2500 Du        
   3727 ****         7.0000  27.0000  25.5000 Du        
   3728 ****         7.0000  27.0000  25.7500 Du        
   3729 ****         7.0000  27.0000  26.0000 Du        
   3730 ****         7.0000  27.0000  26.2500 Du        
   3731 ****         7.0000  27.0000  26.5000 Du        
   3732 ****         7.0000  27.0000  26.7500 Du        
   3733 ****         7.0000  27.0000  27.0000 Du        
   3734 ****         7.0000  27.2500  17.7500 Du        
   3735 ****         7.0000  27.2500  18.0000 Du        
   3736 ****         7.0000  27.2500  18.2500 Du        
   3737 ****         7.0000  27.2500  18.5000 Du        
   3738 ****         7.0000  27.2500  18.7500 Du        
   3739 ****         7.0000  27.2500  19.0000 Du        
   3740 ****         7.0000  27.2500  19.2500 Du        
   3741 ****         7.0000  27.2500  19.5000 Du        
   3742 ****         7.0000  27.2500  23.7500 Du        
   3743 ****         7.0000  27.2500  24.0000 Du        
   3744 ****         7.0000  27.2500  24.2500 Du        
   3745 ****         7.0000  27.2500  24.5000 Du        
   3746 ****         7.0000  27.2500  24.7500 Du        
   3747 ****         7.0000  27.2500  25.0000 Du        
   3748 ****         7.0000  27.2500  25.2500 Du        
   3749 ****         7.0000  27.2500  25.5000 Du        
   3750 ****         7.0000  27.2500  25.7500 Du        
   3751 ****         7.0000  27.2500  26.0000 Du        
   3752 ****         7.0000  27.2500  26.2500 Du        
   3753 ****         7.0000  27.2500  26.5000 Du        
   3754 ****         7.0000  27.2500  26.7500 Du        
   3755 ****         7.0000  27.2500  27.0000 Du        
   3756 ****         7.0000  27.2500  27.2500 Du        
   3757 ****         7.0000  27.5000  18.0000 Du        
   3758 ****         7.0000  27.5000  18.2500 Du        
   3759 ****         7.0000  27.5000  18.5000 Du        
   3760 ****         7.0000  27.5000  18.7500 Du        
   3761 ****         7.0000  27.5000  19.0000 Du        
   3762 ****         7.0000  27.5000  19.2500 Du        
   3763 ****         7.0000  27.5000  23.7500 Du        
   3764 ****         7.0000  27.5000  24.0000 Du        
   3765 ****         7.0000  27.5000  24.2500 Du        
   3766 ****         7.0000  27.5000  24.5000 Du        
   3767 ****         7.0000  27.5000  24.7500 Du        
   3768 ****         7.0000  27.5000  25.0000 Du        
   3769 ****         7.0000  27.5000  25.2500 Du        
   3770 ****         7.0000  27.5000  25.5000 Du        
   3771 ****         7.0000  27.5000  25.7500 Du        
   3772 ****         7.0000  27.5000  26.0000 Du        
   3773 ****         7.0000  27.5000  26.2500 Du        
   3774 ****         7.0000  27.5000  26.5000 Du        
   3775 ****         7.0000  27.5000  26.7500 Du        
   3776 ****         7.0000  27.5000  27.0000 Du        
   3777 ****         7.0000  27.5000  27.2500 Du        
   3778 ****         7.0000  27.5000  27.5000 Du        
   3779 ****         7.0000  27.7500  18.0000 Du        
   3780 ****         7.0000  27.7500  18.2500 Du        
   3781 ****         7.0000  27.7500  23.5000 Du        
   3782 ****         7.0000  27.7500  23.7500 Du        
   3783 ****         7.0000  27.7500  24.0000 Du        
   3784 ****         7.0000  27.7500  24.2500 Du        
   3785 ****         7.0000  27.7500  24.5000 Du        
   3786 ****         7.0000  27.7500  24.7500 Du        
   3787 ****         7.0000  27.7500  25.0000 Du        
   3788 ****         7.0000  27.7500  25.2500 Du        
   3789 ****         7.0000  27.7500  25.5000 Du        
   3790 ****         7.0000  27.7500  25.7500 Du        
   3791 ****         7.0000  27.7500  26.0000 Du        
   3792 ****         7.0000  27.7500  26.2500 Du        
   3793 ****         7.0000  27.7500  26.5000 Du        
   3794 ****         7.0000  27.7500  26.7500 Du        
   3795 ****         7.0000  27.7500  27.0000 Du        
   3796 ****         7.0000  27.7500  27.2500 Du        
   3797 ****         7.0000  27.7500  27.5000 Du        
   3798 ****         7.0000  27.7500  27.7500 Du        
   3799 ****         7.0000  28.0000  23.5000 Du        
   3800 ****         7.0000  28.0000  23.7500 Du        
   3801 ****         7.0000  28.0000  24.0000 Du        
   3802 ****         7.0000  28.0000  24.2500 Du        
   3803 ****         7.0000  28.0000  24.5000 Du        
   3804 ****         7.0000  28.0000  24.7500 Du        
   3805 ****         7.0000  28.0000  25.0000 Du        
   3806 ****         7.0000  28.0000  25.2500 Du        
   3807 ****         7.0000  28.0000  25.5000 Du        
   3808 ****         7.0000  28.0000  25.7500 Du        
   3809 ****         7.0000  28.0000  26.0000 Du        
   3810 ****         7.0000  28.0000  26.2500 Du        
   3811 ****         7.0000  28.0000  26.5000 Du        
   3812 ****         7.0000  28.0000  26.7500 Du        
   3813 ****         7.0000  28.0000  27.0000 Du        
   3814 ****         7.0000  28.0000  27.2500 Du        
   3815 ****         7.0000  28.0000  27.5000 Du        
   3816 ****         7.0000  28.0000  27.7500 Du        
   3817 ****         7.0000  28.2500  23.5000 Du        
   3818 ****         7.0000  28.2500  23.7500 Du        
   3819 ****         7.0000  28.2500  24.0000 Du        
   3820 ****         7.0000  28.2500  24.2500 Du        
   3821 ****         7.0000  28.2500  24.5000 Du        
   3822 ****         7.0000  28.2500  24.7500 Du        
   3823 ****         7.0000  28.2500  25.0000 Du        
   3824 ****         7.0000  28.2500  25.2500 Du        
   3825 ****         7.0000  28.2500  25.5000 Du        
   3826 ****         7.0000  28.2500  25.7500 Du        
   3827 ****         7.0000  28.2500  26.0000 Du        
   3828 ****         7.0000  28.2500  26.2500 Du        
   3829 ****         7.0000  28.2500  26.5000 Du        
   3830 ****         7.0000  28.2500  26.7500 Du        
   3831 ****         7.0000  28.2500  27.0000 Du        
   3832 ****         7.0000  28.2500  27.2500 Du        
   3833 ****         7.0000  28.2500  27.5000 Du        
   3834 ****         7.0000  28.2500  27.7500 Du        
   3835 ****         7.0000  28.5000  23.7500 Du        
   3836 ****         7.0000  28.5000  24.0000 Du        
   3837 ****         7.0000  28.5000  24.2500 Du        
   3838 ****         7.0000  28.5000  24.5000 Du        
   3839 ****         7.0000  28.5000  24.7500 Du        
   3840 ****         7.0000  28.5000  25.0000 Du        
   3841 ****         7.0000  28.5000  25.2500 Du        
   3842 ****         7.0000  28.5000  25.5000 Du        
   3843 ****         7.0000  28.5000  25.7500 Du        
   3844 ****         7.0000  28.5000  26.0000 Du        
   3845 ****         7.0000  28.5000  26.2500 Du        
   3846 ****         7.0000  28.5000  26.5000 Du        
   3847 ****         7.0000  28.5000  26.7500 Du        
   3848 ****         7.0000  28.5000  27.0000 Du        
   3849 ****         7.0000  28.5000  27.2500 Du        
   3850 ****         7.0000  28.5000  27.5000 Du        
   3851 ****         7.0000  28.7500  24.5000 Du        
   3852 ****         7.0000  28.7500  24.7500 Du        
   3853 ****         7.0000  28.7500  25.0000 Du        
   3854 ****         7.0000  28.7500  25.2500 Du        
   3855 ****         7.0000  28.7500  25.5000 Du        
   3856 ****         7.0000  28.7500  25.7500 Du        
   3857 ****         7.0000  28.7500  26.0000 Du        
   3858 ****         7.0000  28.7500  26.2500 Du        
   3859 ****         7.0000  28.7500  26.5000 Du        
   3860 ****         7.0000  28.7500  26.7500 Du        
   3861 ****         7.0000  28.7500  27.0000 Du        
   3862 ****         7.0000  28.7500  27.2500 Du        
   3863 ****         7.0000  29.0000  25.0000 Du        
   3864 ****         7.0000  29.0000  25.2500 Du        
   3865 ****         7.0000  29.0000  25.5000 Du        
   3866 ****         7.0000  29.0000  25.7500 Du        
   3867 ****         7.0000  29.0000  26.0000 Du        
   3868 ****         7.0000  29.0000  26.2500 Du        
   3869 ****         7.0000  29.0000  26.5000 Du        
   3870 ****         7.0000  29.0000  26.7500 Du        
   3871 ****         7.0000  29.2500  25.7500 Du        
   3872 ****         7.0000  29.2500  26.0000 Du        
   3873 ****         7.0000  29.2500  26.2500 Du        
   3874 ****         7.2500  19.5000  28.7500 Du        
   3875 ****         7.2500  19.5000  29.0000 Du        
   3876 ****         7.2500  19.5000  29.2500 Du        
   3877 ****         7.2500  19.5000  29.5000 Du        
   3878 ****         7.2500  19.7500  28.2500 Du        
   3879 ****         7.2500  19.7500  28.5000 Du        
   3880 ****         7.2500  19.7500  28.7500 Du        
   3881 ****         7.2500  19.7500  29.0000 Du        
   3882 ****         7.2500  19.7500  29.2500 Du        
   3883 ****         7.2500  19.7500  29.5000 Du        
   3884 ****         7.2500  19.7500  29.7500 Du        
   3885 ****         7.2500  20.0000  28.0000 Du        
   3886 ****         7.2500  20.0000  28.2500 Du        
   3887 ****         7.2500  20.0000  28.5000 Du        
   3888 ****         7.2500  20.0000  28.7500 Du        
   3889 ****         7.2500  20.0000  29.0000 Du        
   3890 ****         7.2500  20.0000  29.2500 Du        
   3891 ****         7.2500  20.0000  29.5000 Du        
   3892 ****         7.2500  20.0000  29.7500 Du        
   3893 ****         7.2500  20.2500  27.0000 Du        
   3894 ****         7.2500  20.2500  27.7500 Du        
   3895 ****         7.2500  20.2500  28.0000 Du        
   3896 ****         7.2500  20.2500  28.2500 Du        
   3897 ****         7.2500  20.2500  28.5000 Du        
   3898 ****         7.2500  20.2500  28.7500 Du        
   3899 ****         7.2500  20.2500  29.0000 Du        
   3900 ****         7.2500  20.2500  29.2500 Du        
   3901 ****         7.2500  20.2500  29.5000 Du        
   3902 ****         7.2500  20.2500  29.7500 Du        
   3903 ****         7.2500  20.5000  27.5000 Du        
   3904 ****         7.2500  20.5000  27.7500 Du        
   3905 ****         7.2500  20.5000  28.0000 Du        
   3906 ****         7.2500  20.5000  28.2500 Du        
   3907 ****         7.2500  20.5000  28.5000 Du        
   3908 ****         7.2500  20.5000  28.7500 Du        
   3909 ****         7.2500  20.5000  29.0000 Du        
   3910 ****         7.2500  20.5000  29.2500 Du        
   3911 ****         7.2500  20.5000  29.5000 Du        
   3912 ****         7.2500  20.7500  27.2500 Du        
   3913 ****         7.2500  20.7500  27.5000 Du        
   3914 ****         7.2500  20.7500  27.7500 Du        
   3915 ****         7.2500  20.7500  28.0000 Du        
   3916 ****         7.2500  20.7500  28.2500 Du        
   3917 ****         7.2500  20.7500  28.5000 Du        
   3918 ****         7.2500  20.7500  28.7500 Du        
   3919 ****         7.2500  20.7500  29.0000 Du        
   3920 ****         7.2500  20.7500  29.2500 Du        
   3921 ****         7.2500  21.0000  27.0000 Du        
   3922 ****         7.2500  21.0000  27.2500 Du        
   3923 ****         7.2500  21.0000  27.5000 Du        
   3924 ****         7.2500  21.0000  27.7500 Du        
   3925 ****         7.2500  21.0000  28.0000 Du        
   3926 ****         7.2500  21.0000  28.2500 Du        
   3927 ****         7.2500  21.0000  28.5000 Du        
   3928 ****         7.2500  21.0000  28.7500 Du        
   3929 ****         7.2500  21.2500  26.7500 Du        
   3930 ****         7.2500  21.2500  27.0000 Du        
   3931 ****         7.2500  21.2500  27.2500 Du        
   3932 ****         7.2500  21.2500  27.5000 Du        
   3933 ****         7.2500  21.2500  27.7500 Du        
   3934 ****         7.2500  21.2500  28.0000 Du        
   3935 ****         7.2500  21.2500  28.2500 Du        
   3936 ****         7.2500  21.5000  26.7500 Du        
   3937 ****         7.2500  21.5000  27.0000 Du        
   3938 ****         7.2500  21.5000  27.2500 Du        
   3939 ****         7.2500  21.5000  27.5000 Du        
   3940 ****         7.2500  21.5000  27.7500 Du        
   3941 ****         7.2500  21.7500  26.2500 Du        
   3942 ****         7.2500  21.7500  26.7500 Du        
   3943 ****         7.2500  21.7500  27.0000 Du        
   3944 ****         7.2500  21.7500  27.2500 Du        
   3945 ****         7.2500  22.0000  25.0000 Du        
   3946 ****         7.2500  22.0000  25.7500 Du        
   3947 ****         7.2500  22.0000  26.2500 Du        
   3948 ****         7.2500  22.0000  26.7500 Du        
   3949 ****         7.2500  22.0000  27.0000 Du        
   3950 ****         7.2500  22.2500  25.0000 Du        
   3951 ****         7.2500  22.2500  25.2500 Du        
   3952 ****         7.2500  22.2500  25.5000 Du        
   3953 ****         7.2500  22.2500  25.7500 Du        
   3954 ****         7.2500  22.2500  26.0000 Du        
   3955 ****         7.2500  22.2500  26.2500 Du        
   3956 ****         7.2500  22.5000  25.0000 Du        
   3957 ****         7.2500  22.5000  25.2500 Du        
   3958 ****         7.2500  22.5000  25.7500 Du        
   3959 ****         7.2500  22.5000  26.0000 Du        
   3960 ****         7.2500  22.7500  25.0000 Du        
   3961 ****         7.2500  22.7500  25.2500 Du        
   3962 ****         7.2500  22.7500  25.5000 Du        
   3963 ****         7.2500  22.7500  25.7500 Du        
   3964 ****         7.2500  22.7500  26.0000 Du        
   3965 ****         7.2500  23.0000  24.7500 Du        
   3966 ****         7.2500  23.0000  25.0000 Du        
   3967 ****         7.2500  23.0000  25.2500 Du        
   3968 ****         7.2500  23.0000  25.5000 Du        
   3969 ****         7.2500  23.0000  25.7500 Du        
   3970 ****         7.2500  23.0000  26.0000 Du        
   3971 ****         7.2500  23.2500  24.7500 Du        
   3972 ****         7.2500  23.2500  25.0000 Du        
   3973 ****         7.2500  23.2500  25.2500 Du        
   3974 ****         7.2500  23.2500  25.5000 Du        
   3975 ****         7.2500  23.2500  25.7500 Du        
   3976 ****         7.2500  23.5000  24.5000 Du        
   3977 ****         7.2500  23.5000  24.7500 Du        
   3978 ****         7.2500  23.5000  25.0000 Du        
   3979 ****         7.2500  23.5000  25.2500 Du        
   3980 ****         7.2500  23.5000  25.5000 Du        
   3981 ****         7.2500  23.5000  25.7500 Du        
   3982 ****         7.2500  23.7500  24.5000 Du        
   3983 ****         7.2500  23.7500  24.7500 Du        
   3984 ****         7.2500  23.7500  25.0000 Du        
   3985 ****         7.2500  23.7500  25.2500 Du        
   3986 ****         7.2500  23.7500  25.5000 Du        
   3987 ****         7.2500  23.7500  25.7500 Du        
   3988 ****         7.2500  24.0000  24.5000 Du        
   3989 ****         7.2500  24.0000  24.7500 Du        
   3990 ****         7.2500  24.0000  25.0000 Du        
   3991 ****         7.2500  24.0000  25.2500 Du        
   3992 ****         7.2500  24.0000  25.5000 Du        
   3993 ****         7.2500  24.2500  24.5000 Du        
   3994 ****         7.2500  24.2500  24.7500 Du        
   3995 ****         7.2500  24.2500  25.0000 Du        
   3996 ****         7.2500  24.2500  25.2500 Du        
   3997 ****         7.2500  24.2500  25.5000 Du        
   3998 ****         7.2500  24.5000  24.2500 Du        
   3999 ****         7.2500  24.5000  24.7500 Du        
   4000 ****         7.2500  24.5000  25.0000 Du        
   4001 ****         7.2500  24.5000  25.2500 Du        
   4002 ****         7.2500  24.7500  24.5000 Du        
   4003 ****         7.2500  24.7500  24.7500 Du        
   4004 ****         7.2500  24.7500  25.0000 Du        
   4005 ****         7.2500  24.7500  25.2500 Du        
   4006 ****         7.2500  25.0000  24.5000 Du        
   4007 ****         7.2500  25.0000  24.7500 Du        
   4008 ****         7.2500  25.0000  25.0000 Du        
   4009 ****         7.2500  25.0000  25.2500 Du        
   4010 ****         7.2500  25.2500  16.7500 Du        
   4011 ****         7.2500  25.2500  17.0000 Du        
   4012 ****         7.2500  25.2500  24.5000 Du        
   4013 ****         7.2500  25.2500  24.7500 Du        
   4014 ****         7.2500  25.2500  25.0000 Du        
   4015 ****         7.2500  25.2500  25.2500 Du        
   4016 ****         7.2500  25.5000  16.7500 Du        
   4017 ****         7.2500  25.5000  17.0000 Du        
   4018 ****         7.2500  25.5000  17.2500 Du        
   4019 ****         7.2500  25.5000  17.5000 Du        
   4020 ****         7.2500  25.5000  24.7500 Du        
   4021 ****         7.2500  25.5000  25.0000 Du        
   4022 ****         7.2500  25.5000  25.2500 Du        
   4023 ****         7.2500  25.5000  25.5000 Du        
   4024 ****         7.2500  25.7500  16.7500 Du        
   4025 ****         7.2500  25.7500  17.0000 Du        
   4026 ****         7.2500  25.7500  17.2500 Du        
   4027 ****         7.2500  25.7500  17.5000 Du        
   4028 ****         7.2500  25.7500  17.7500 Du        
   4029 ****         7.2500  25.7500  18.0000 Du        
   4030 ****         7.2500  25.7500  24.7500 Du        
   4031 ****         7.2500  25.7500  25.0000 Du        
   4032 ****         7.2500  25.7500  25.2500 Du        
   4033 ****         7.2500  25.7500  25.5000 Du        
   4034 ****         7.2500  25.7500  25.7500 Du        
   4035 ****         7.2500  26.0000  16.7500 Du        
   4036 ****         7.2500  26.0000  17.0000 Du        
   4037 ****         7.2500  26.0000  17.2500 Du        
   4038 ****         7.2500  26.0000  17.5000 Du        
   4039 ****         7.2500  26.0000  17.7500 Du        
   4040 ****         7.2500  26.0000  18.0000 Du        
   4041 ****         7.2500  26.0000  18.2500 Du        
   4042 ****         7.2500  26.0000  18.5000 Du        
   4043 ****         7.2500  26.0000  18.7500 Du        
   4044 ****         7.2500  26.0000  24.7500 Du        
   4045 ****         7.2500  26.0000  25.0000 Du        
   4046 ****         7.2500  26.0000  25.2500 Du        
   4047 ****         7.2500  26.0000  25.5000 Du        
   4048 ****         7.2500  26.0000  25.7500 Du        
   4049 ****         7.2500  26.0000  26.0000 Du        
   4050 ****         7.2500  26.2500  17.0000 Du        
   4051 ****         7.2500  26.2500  17.2500 Du        
   4052 ****         7.2500  26.2500  17.5000 Du        
   4053 ****         7.2500  26.2500  17.7500 Du        
   4054 ****         7.2500  26.2500  18.0000 Du        
   4055 ****         7.2500  26.2500  18.2500 Du        
   4056 ****         7.2500  26.2500  18.5000 Du        
   4057 ****         7.2500  26.2500  18.7500 Du        
   4058 ****         7.2500  26.2500  19.0000 Du        
   4059 ****         7.2500  26.2500  19.2500 Du        
   4060 ****         7.2500  26.2500  24.7500 Du        
   4061 ****         7.2500  26.2500  25.0000 Du        
   4062 ****         7.2500  26.2500  25.2500 Du        
   4063 ****         7.2500  26.2500  25.5000 Du        
   4064 ****         7.2500  26.2500  25.7500 Du        
   4065 ****         7.2500  26.2500  26.0000 Du        
   4066 ****         7.2500  26.5000  17.0000 Du        
   4067 ****         7.2500  26.5000  17.2500 Du        
   4068 ****         7.2500  26.5000  17.5000 Du        
   4069 ****         7.2500  26.5000  17.7500 Du        
   4070 ****         7.2500  26.5000  18.0000 Du        
   4071 ****         7.2500  26.5000  18.2500 Du        
   4072 ****         7.2500  26.5000  18.5000 Du        
   4073 ****         7.2500  26.5000  18.7500 Du        
   4074 ****         7.2500  26.5000  19.0000 Du        
   4075 ****         7.2500  26.5000  19.2500 Du        
   4076 ****         7.2500  26.5000  19.5000 Du        
   4077 ****         7.2500  26.5000  24.0000 Du        
   4078 ****         7.2500  26.5000  24.2500 Du        
   4079 ****         7.2500  26.5000  24.5000 Du        
   4080 ****         7.2500  26.5000  24.7500 Du        
   4081 ****         7.2500  26.5000  25.0000 Du        
   4082 ****         7.2500  26.5000  25.2500 Du        
   4083 ****         7.2500  26.5000  25.5000 Du        
   4084 ****         7.2500  26.5000  25.7500 Du        
   4085 ****         7.2500  26.5000  26.0000 Du        
   4086 ****         7.2500  26.5000  26.2500 Du        
   4087 ****         7.2500  26.7500  17.0000 Du        
   4088 ****         7.2500  26.7500  17.2500 Du        
   4089 ****         7.2500  26.7500  17.5000 Du        
   4090 ****         7.2500  26.7500  17.7500 Du        
   4091 ****         7.2500  26.7500  18.0000 Du        
   4092 ****         7.2500  26.7500  18.2500 Du        
   4093 ****         7.2500  26.7500  18.5000 Du        
   4094 ****         7.2500  26.7500  18.7500 Du        
   4095 ****         7.2500  26.7500  19.0000 Du        
   4096 ****         7.2500  26.7500  19.2500 Du        
   4097 ****         7.2500  26.7500  19.5000 Du        
   4098 ****         7.2500  26.7500  19.7500 Du        
   4099 ****         7.2500  26.7500  23.7500 Du        
   4100 ****         7.2500  26.7500  24.0000 Du        
   4101 ****         7.2500  26.7500  24.2500 Du        
   4102 ****         7.2500  26.7500  24.5000 Du        
   4103 ****         7.2500  26.7500  24.7500 Du        
   4104 ****         7.2500  26.7500  25.0000 Du        
   4105 ****         7.2500  26.7500  25.2500 Du        
   4106 ****         7.2500  26.7500  25.5000 Du        
   4107 ****         7.2500  26.7500  25.7500 Du        
   4108 ****         7.2500  26.7500  26.0000 Du        
   4109 ****         7.2500  26.7500  26.2500 Du        
   4110 ****         7.2500  26.7500  26.5000 Du        
   4111 ****         7.2500  27.0000  17.0000 Du        
   4112 ****         7.2500  27.0000  17.2500 Du        
   4113 ****         7.2500  27.0000  17.5000 Du        
   4114 ****         7.2500  27.0000  17.7500 Du        
   4115 ****         7.2500  27.0000  18.0000 Du        
   4116 ****         7.2500  27.0000  18.2500 Du        
   4117 ****         7.2500  27.0000  18.5000 Du        
   4118 ****         7.2500  27.0000  18.7500 Du        
   4119 ****         7.2500  27.0000  19.0000 Du        
   4120 ****         7.2500  27.0000  19.2500 Du        
   4121 ****         7.2500  27.0000  19.5000 Du        
   4122 ****         7.2500  27.0000  19.7500 Du        
   4123 ****         7.2500  27.0000  23.5000 Du        
   4124 ****         7.2500  27.0000  23.7500 Du        
   4125 ****         7.2500  27.0000  24.0000 Du        
   4126 ****         7.2500  27.0000  24.2500 Du        
   4127 ****         7.2500  27.0000  24.5000 Du        
   4128 ****         7.2500  27.0000  24.7500 Du        
   4129 ****         7.2500  27.0000  25.0000 Du        
   4130 ****         7.2500  27.0000  25.2500 Du        
   4131 ****         7.2500  27.0000  25.5000 Du        
   4132 ****         7.2500  27.0000  25.7500 Du        
   4133 ****         7.2500  27.0000  26.0000 Du        
   4134 ****         7.2500  27.0000  26.2500 Du        
   4135 ****         7.2500  27.0000  26.5000 Du        
   4136 ****         7.2500  27.0000  26.7500 Du        
   4137 ****         7.2500  27.2500  17.2500 Du        
   4138 ****         7.2500  27.2500  17.5000 Du        
   4139 ****         7.2500  27.2500  17.7500 Du        
   4140 ****         7.2500  27.2500  18.0000 Du        
   4141 ****         7.2500  27.2500  18.2500 Du        
   4142 ****         7.2500  27.2500  18.5000 Du        
   4143 ****         7.2500  27.2500  18.7500 Du        
   4144 ****         7.2500  27.2500  19.0000 Du        
   4145 ****         7.2500  27.2500  19.2500 Du        
   4146 ****         7.2500  27.2500  19.5000 Du        
   4147 ****         7.2500  27.2500  19.7500 Du        
   4148 ****         7.2500  27.2500  23.5000 Du        
   4149 ****         7.2500  27.2500  23.7500 Du        
   4150 ****         7.2500  27.2500  24.0000 Du        
   4151 ****         7.2500  27.2500  24.2500 Du        
   4152 ****         7.2500  27.2500  24.5000 Du        
   4153 ****         7.2500  27.2500  24.7500 Du        
   4154 ****         7.2500  27.2500  25.0000 Du        
   4155 ****         7.2500  27.2500  25.2500 Du        
   4156 ****         7.2500  27.2500  25.5000 Du        
   4157 ****         7.2500  27.2500  25.7500 Du        
   4158 ****         7.2500  27.2500  26.0000 Du        
   4159 ****         7.2500  27.2500  26.2500 Du        
   4160 ****         7.2500  27.2500  26.5000 Du        
   4161 ****         7.2500  27.2500  26.7500 Du        
   4162 ****         7.2500  27.2500  27.0000 Du        
   4163 ****         7.2500  27.5000  17.5000 Du        
   4164 ****         7.2500  27.5000  17.7500 Du        
   4165 ****         7.2500  27.5000  18.0000 Du        
   4166 ****         7.2500  27.5000  18.2500 Du        
   4167 ****         7.2500  27.5000  18.5000 Du        
   4168 ****         7.2500  27.5000  18.7500 Du        
   4169 ****         7.2500  27.5000  19.0000 Du        
   4170 ****         7.2500  27.5000  19.2500 Du        
   4171 ****         7.2500  27.5000  23.5000 Du        
   4172 ****         7.2500  27.5000  23.7500 Du        
   4173 ****         7.2500  27.5000  24.0000 Du        
   4174 ****         7.2500  27.5000  24.2500 Du        
   4175 ****         7.2500  27.5000  24.5000 Du        
   4176 ****         7.2500  27.5000  24.7500 Du        
   4177 ****         7.2500  27.5000  25.0000 Du        
   4178 ****         7.2500  27.5000  25.2500 Du        
   4179 ****         7.2500  27.5000  25.5000 Du        
   4180 ****         7.2500  27.5000  25.7500 Du        
   4181 ****         7.2500  27.5000  26.0000 Du        
   4182 ****         7.2500  27.5000  26.2500 Du        
   4183 ****         7.2500  27.5000  26.5000 Du        
   4184 ****         7.2500  27.5000  26.7500 Du        
   4185 ****         7.2500  27.5000  27.0000 Du        
   4186 ****         7.2500  27.5000  27.2500 Du        
   4187 ****         7.2500  27.7500  17.5000 Du        
   4188 ****         7.2500  27.7500  17.7500 Du        
   4189 ****         7.2500  27.7500  18.0000 Du        
   4190 ****         7.2500  27.7500  18.2500 Du        
   4191 ****         7.2500  27.7500  18.5000 Du        
   4192 ****         7.2500  27.7500  18.7500 Du        
   4193 ****         7.2500  27.7500  23.2500 Du        
   4194 ****         7.2500  27.7500  23.5000 Du        
   4195 ****         7.2500  27.7500  23.7500 Du        
   4196 ****         7.2500  27.7500  24.0000 Du        
   4197 ****         7.2500  27.7500  24.2500 Du        
   4198 ****         7.2500  27.7500  24.5000 Du        
   4199 ****         7.2500  27.7500  24.7500 Du        
   4200 ****         7.2500  27.7500  25.0000 Du        
   4201 ****         7.2500  27.7500  25.2500 Du        
   4202 ****         7.2500  27.7500  25.5000 Du        
   4203 ****         7.2500  27.7500  25.7500 Du        
   4204 ****         7.2500  27.7500  26.0000 Du        
   4205 ****         7.2500  27.7500  26.2500 Du        
   4206 ****         7.2500  27.7500  26.5000 Du        
   4207 ****         7.2500  27.7500  26.7500 Du        
   4208 ****         7.2500  27.7500  27.0000 Du        
   4209 ****         7.2500  27.7500  27.2500 Du        
   4210 ****         7.2500  27.7500  27.5000 Du        
   4211 ****         7.2500  28.0000  17.7500 Du        
   4212 ****         7.2500  28.0000  18.0000 Du        
   4213 ****         7.2500  28.0000  18.2500 Du        
   4214 ****         7.2500  28.0000  23.2500 Du        
   4215 ****         7.2500  28.0000  23.5000 Du        
   4216 ****         7.2500  28.0000  23.7500 Du        
   4217 ****         7.2500  28.0000  24.0000 Du        
   4218 ****         7.2500  28.0000  24.2500 Du        
   4219 ****         7.2500  28.0000  24.5000 Du        
   4220 ****         7.2500  28.0000  24.7500 Du        
   4221 ****         7.2500  28.0000  25.0000 Du        
   4222 ****         7.2500  28.0000  25.2500 Du        
   4223 ****         7.2500  28.0000  25.5000 Du        
   4224 ****         7.2500  28.0000  25.7500 Du        
   4225 ****         7.2500  28.0000  26.0000 Du        
   4226 ****         7.2500  28.0000  26.2500 Du        
   4227 ****         7.2500  28.0000  26.5000 Du        
   4228 ****         7.2500  28.0000  26.7500 Du        
   4229 ****         7.2500  28.0000  27.0000 Du        
   4230 ****         7.2500  28.0000  27.2500 Du        
   4231 ****         7.2500  28.0000  27.5000 Du        
   4232 ****         7.2500  28.2500  23.2500 Du        
   4233 ****         7.2500  28.2500  23.5000 Du        
   4234 ****         7.2500  28.2500  23.7500 Du        
   4235 ****         7.2500  28.2500  24.0000 Du        
   4236 ****         7.2500  28.2500  24.2500 Du        
   4237 ****         7.2500  28.2500  24.5000 Du        
   4238 ****         7.2500  28.2500  24.7500 Du        
   4239 ****         7.2500  28.2500  25.0000 Du        
   4240 ****         7.2500  28.2500  25.2500 Du        
   4241 ****         7.2500  28.2500  25.5000 Du        
   4242 ****         7.2500  28.2500  25.7500 Du        
   4243 ****         7.2500  28.2500  26.0000 Du        
   4244 ****         7.2500  28.2500  26.2500 Du        
   4245 ****         7.2500  28.2500  26.5000 Du        
   4246 ****         7.2500  28.2500  26.7500 Du        
   4247 ****         7.2500  28.2500  27.0000 Du        
   4248 ****         7.2500  28.2500  27.2500 Du        
   4249 ****         7.2500  28.5000  23.5000 Du        
   4250 ****         7.2500  28.5000  23.7500 Du        
   4251 ****         7.2500  28.5000  24.0000 Du        
   4252 ****         7.2500  28.5000  24.2500 Du        
   4253 ****         7.2500  28.5000  24.5000 Du        
   4254 ****         7.2500  28.5000  24.7500 Du        
   4255 ****         7.2500  28.5000  25.0000 Du        
   4256 ****         7.2500  28.5000  25.2500 Du        
   4257 ****         7.2500  28.5000  25.5000 Du        
   4258 ****         7.2500  28.5000  25.7500 Du        
   4259 ****         7.2500  28.5000  26.0000 Du        
   4260 ****         7.2500  28.5000  26.2500 Du        
   4261 ****         7.2500  28.5000  26.5000 Du        
   4262 ****         7.2500  28.5000  26.7500 Du        
   4263 ****         7.2500  28.5000  27.0000 Du        
   4264 ****         7.2500  28.7500  24.2500 Du        
   4265 ****         7.2500  28.7500  24.5000 Du        
   4266 ****         7.2500  28.7500  24.7500 Du        
   4267 ****         7.2500  28.7500  25.0000 Du        
   4268 ****         7.2500  28.7500  25.2500 Du        
   4269 ****         7.2500  28.7500  25.5000 Du        
   4270 ****         7.2500  28.7500  25.7500 Du        
   4271 ****         7.2500  28.7500  26.0000 Du        
   4272 ****         7.2500  28.7500  26.2500 Du        
   4273 ****         7.2500  28.7500  26.5000 Du        
   4274 ****         7.2500  28.7500  26.7500 Du        
   4275 ****         7.2500  29.0000  25.2500 Du        
   4276 ****         7.2500  29.0000  25.5000 Du        
   4277 ****         7.2500  29.0000  25.7500 Du        
   4278 ****         7.2500  29.0000  26.0000 Du        
   4279 ****         7.2500  29.0000  26.2500 Du        
   4280 ****         7.5000  19.7500  29.0000 Du        
   4281 ****         7.5000  19.7500  29.2500 Du        
   4282 ****         7.5000  19.7500  29.5000 Du        
   4283 ****         7.5000  19.7500  29.7500 Du        
   4284 ****         7.5000  20.0000  28.7500 Du        
   4285 ****         7.5000  20.0000  29.0000 Du        
   4286 ****         7.5000  20.0000  29.2500 Du        
   4287 ****         7.5000  20.0000  29.5000 Du        
   4288 ****         7.5000  20.0000  29.7500 Du        
   4289 ****         7.5000  20.2500  28.5000 Du        
   4290 ****         7.5000  20.2500  28.7500 Du        
   4291 ****         7.5000  20.2500  29.0000 Du        
   4292 ****         7.5000  20.2500  29.2500 Du        
   4293 ****         7.5000  20.2500  29.5000 Du        
   4294 ****         7.5000  20.2500  29.7500 Du        
   4295 ****         7.5000  20.5000  28.2500 Du        
   4296 ****         7.5000  20.5000  28.5000 Du        
   4297 ****         7.5000  20.5000  28.7500 Du        
   4298 ****         7.5000  20.5000  29.0000 Du        
   4299 ****         7.5000  20.5000  29.2500 Du        
   4300 ****         7.5000  20.5000  29.5000 Du        
   4301 ****         7.5000  20.7500  28.2500 Du        
   4302 ****         7.5000  20.7500  28.5000 Du        
   4303 ****         7.5000  20.7500  28.7500 Du        
   4304 ****         7.5000  21.0000  28.0000 Du        
   4305 ****         7.5000  21.0000  28.2500 Du        
   4306 ****         7.5000  24.0000  24.2500 Du        
   4307 ****         7.5000  24.2500  24.7500 Du        
   4308 ****         7.5000  24.5000  24.7500 Du        
   4309 ****         7.5000  24.7500  24.7500 Du        
   4310 ****         7.5000  25.0000  16.7500 Du        
   4311 ****         7.5000  25.2500  16.7500 Du        
   4312 ****         7.5000  25.2500  17.0000 Du        
   4313 ****         7.5000  25.5000  16.7500 Du        
   4314 ****         7.5000  25.5000  17.0000 Du        
   4315 ****         7.5000  25.5000  17.2500 Du        
   4316 ****         7.5000  25.5000  17.5000 Du        
   4317 ****         7.5000  25.7500  16.7500 Du        
   4318 ****         7.5000  25.7500  17.0000 Du        
   4319 ****         7.5000  25.7500  17.2500 Du        
   4320 ****         7.5000  25.7500  17.5000 Du        
   4321 ****         7.5000  25.7500  17.7500 Du        
   4322 ****         7.5000  25.7500  18.0000 Du        
   4323 ****         7.5000  26.0000  16.7500 Du        
   4324 ****         7.5000  26.0000  17.0000 Du        
   4325 ****         7.5000  26.0000  17.2500 Du        
   4326 ****         7.5000  26.0000  17.5000 Du        
   4327 ****         7.5000  26.0000  17.7500 Du        
   4328 ****         7.5000  26.0000  18.0000 Du        
   4329 ****         7.5000  26.0000  18.2500 Du        
   4330 ****         7.5000  26.0000  18.5000 Du        
   4331 ****         7.5000  26.0000  18.7500 Du        
   4332 ****         7.5000  26.0000  19.0000 Du        
   4333 ****         7.5000  26.2500  16.7500 Du        
   4334 ****         7.5000  26.2500  17.0000 Du        
   4335 ****         7.5000  26.2500  17.2500 Du        
   4336 ****         7.5000  26.2500  17.5000 Du        
   4337 ****         7.5000  26.2500  17.7500 Du        
   4338 ****         7.5000  26.2500  18.0000 Du        
   4339 ****         7.5000  26.2500  18.2500 Du        
   4340 ****         7.5000  26.2500  18.5000 Du        
   4341 ****         7.5000  26.2500  18.7500 Du        
   4342 ****         7.5000  26.2500  19.0000 Du        
   4343 ****         7.5000  26.2500  19.2500 Du        
   4344 ****         7.5000  26.2500  19.5000 Du        
   4345 ****         7.5000  26.5000  16.7500 Du        
   4346 ****         7.5000  26.5000  17.0000 Du        
   4347 ****         7.5000  26.5000  17.2500 Du        
   4348 ****         7.5000  26.5000  17.5000 Du        
   4349 ****         7.5000  26.5000  17.7500 Du        
   4350 ****         7.5000  26.5000  18.0000 Du        
   4351 ****         7.5000  26.5000  18.2500 Du        
   4352 ****         7.5000  26.5000  18.5000 Du        
   4353 ****         7.5000  26.5000  18.7500 Du        
   4354 ****         7.5000  26.5000  19.0000 Du        
   4355 ****         7.5000  26.5000  19.2500 Du        
   4356 ****         7.5000  26.5000  19.5000 Du        
   4357 ****         7.5000  26.5000  19.7500 Du        
   4358 ****         7.5000  26.5000  25.2500 Du        
   4359 ****         7.5000  26.5000  25.7500 Du        
   4360 ****         7.5000  26.7500  16.7500 Du        
   4361 ****         7.5000  26.7500  17.0000 Du        
   4362 ****         7.5000  26.7500  17.2500 Du        
   4363 ****         7.5000  26.7500  17.5000 Du        
   4364 ****         7.5000  26.7500  17.7500 Du        
   4365 ****         7.5000  26.7500  18.0000 Du        
   4366 ****         7.5000  26.7500  18.2500 Du        
   4367 ****         7.5000  26.7500  18.5000 Du        
   4368 ****         7.5000  26.7500  18.7500 Du        
   4369 ****         7.5000  26.7500  19.0000 Du        
   4370 ****         7.5000  26.7500  19.2500 Du        
   4371 ****         7.5000  26.7500  19.5000 Du        
   4372 ****         7.5000  26.7500  19.7500 Du        
   4373 ****         7.5000  26.7500  20.0000 Du        
   4374 ****         7.5000  26.7500  24.0000 Du        
   4375 ****         7.5000  26.7500  24.2500 Du        
   4376 ****         7.5000  26.7500  24.7500 Du        
   4377 ****         7.5000  26.7500  25.0000 Du        
   4378 ****         7.5000  26.7500  25.2500 Du        
   4379 ****         7.5000  26.7500  25.5000 Du        
   4380 ****         7.5000  26.7500  25.7500 Du        
   4381 ****         7.5000  26.7500  26.0000 Du        
   4382 ****         7.5000  27.0000  17.0000 Du        
   4383 ****         7.5000  27.0000  17.2500 Du        
   4384 ****         7.5000  27.0000  17.5000 Du        
   4385 ****         7.5000  27.0000  17.7500 Du        
   4386 ****         7.5000  27.0000  18.0000 Du        
   4387 ****         7.5000  27.0000  18.2500 Du        
   4388 ****         7.5000  27.0000  18.5000 Du        
   4389 ****         7.5000  27.0000  18.7500 Du        
   4390 ****         7.5000  27.0000  19.0000 Du        
   4391 ****         7.5000  27.0000  19.2500 Du        
   4392 ****         7.5000  27.0000  19.5000 Du        
   4393 ****         7.5000  27.0000  19.7500 Du        
   4394 ****         7.5000  27.0000  20.0000 Du        
   4395 ****         7.5000  27.0000  23.7500 Du        
   4396 ****         7.5000  27.0000  24.0000 Du        
   4397 ****         7.5000  27.0000  24.2500 Du        
   4398 ****         7.5000  27.0000  25.0000 Du        
   4399 ****         7.5000  27.0000  25.2500 Du        
   4400 ****         7.5000  27.0000  25.5000 Du        
   4401 ****         7.5000  27.0000  25.7500 Du        
   4402 ****         7.5000  27.0000  26.0000 Du        
   4403 ****         7.5000  27.0000  26.2500 Du        
   4404 ****         7.5000  27.0000  26.5000 Du        
   4405 ****         7.5000  27.2500  17.0000 Du        
   4406 ****         7.5000  27.2500  17.2500 Du        
   4407 ****         7.5000  27.2500  17.5000 Du        
   4408 ****         7.5000  27.2500  17.7500 Du        
   4409 ****         7.5000  27.2500  18.0000 Du        
   4410 ****         7.5000  27.2500  18.2500 Du        
   4411 ****         7.5000  27.2500  18.5000 Du        
   4412 ****         7.5000  27.2500  18.7500 Du        
   4413 ****         7.5000  27.2500  19.0000 Du        
   4414 ****         7.5000  27.2500  19.2500 Du        
   4415 ****         7.5000  27.2500  19.5000 Du        
   4416 ****         7.5000  27.2500  19.7500 Du        
   4417 ****         7.5000  27.2500  20.0000 Du        
   4418 ****         7.5000  27.2500  23.5000 Du        
   4419 ****         7.5000  27.2500  23.7500 Du        
   4420 ****         7.5000  27.2500  24.0000 Du        
   4421 ****         7.5000  27.2500  24.2500 Du        
   4422 ****         7.5000  27.2500  24.7500 Du        
   4423 ****         7.5000  27.2500  25.0000 Du        
   4424 ****         7.5000  27.2500  25.2500 Du        
   4425 ****         7.5000  27.2500  25.5000 Du        
   4426 ****         7.5000  27.2500  25.7500 Du        
   4427 ****         7.5000  27.2500  26.0000 Du        
   4428 ****         7.5000  27.2500  26.2500 Du        
   4429 ****         7.5000  27.2500  26.5000 Du        
   4430 ****         7.5000  27.2500  26.7500 Du        
   4431 ****         7.5000  27.5000  17.2500 Du        
   4432 ****         7.5000  27.5000  17.5000 Du        
   4433 ****         7.5000  27.5000  17.7500 Du        
   4434 ****         7.5000  27.5000  18.0000 Du        
   4435 ****         7.5000  27.5000  18.2500 Du        
   4436 ****         7.5000  27.5000  18.5000 Du        
   4437 ****         7.5000  27.5000  18.7500 Du        
   4438 ****         7.5000  27.5000  19.0000 Du        
   4439 ****         7.5000  27.5000  19.2500 Du        
   4440 ****         7.5000  27.5000  19.5000 Du        
   4441 ****         7.5000  27.5000  19.7500 Du        
   4442 ****         7.5000  27.5000  24.2500 Du        
   4443 ****         7.5000  27.5000  25.0000 Du        
   4444 ****         7.5000  27.5000  25.2500 Du        
   4445 ****         7.5000  27.5000  25.5000 Du        
   4446 ****         7.5000  27.5000  25.7500 Du        
   4447 ****         7.5000  27.5000  26.0000 Du        
   4448 ****         7.5000  27.5000  26.2500 Du        
   4449 ****         7.5000  27.5000  26.5000 Du        
   4450 ****         7.5000  27.5000  26.7500 Du        
   4451 ****         7.5000  27.5000  27.0000 Du        
   4452 ****         7.5000  27.7500  17.5000 Du        
   4453 ****         7.5000  27.7500  17.7500 Du        
   4454 ****         7.5000  27.7500  18.0000 Du        
   4455 ****         7.5000  27.7500  18.2500 Du        
   4456 ****         7.5000  27.7500  18.5000 Du        
   4457 ****         7.5000  27.7500  18.7500 Du        
   4458 ****         7.5000  27.7500  19.0000 Du        
   4459 ****         7.5000  27.7500  24.0000 Du        
   4460 ****         7.5000  27.7500  24.2500 Du        
   4461 ****         7.5000  27.7500  24.7500 Du        
   4462 ****         7.5000  27.7500  25.0000 Du        
   4463 ****         7.5000  27.7500  25.2500 Du        
   4464 ****         7.5000  27.7500  25.5000 Du        
   4465 ****         7.5000  27.7500  25.7500 Du        
   4466 ****         7.5000  27.7500  26.0000 Du        
   4467 ****         7.5000  27.7500  26.2500 Du        
   4468 ****         7.5000  27.7500  26.5000 Du        
   4469 ****         7.5000  27.7500  26.7500 Du        
   4470 ****         7.5000  27.7500  27.0000 Du        
   4471 ****         7.5000  28.0000  17.5000 Du        
   4472 ****         7.5000  28.0000  17.7500 Du        
   4473 ****         7.5000  28.0000  18.0000 Du        
   4474 ****         7.5000  28.0000  18.2500 Du        
   4475 ****         7.5000  28.0000  18.5000 Du        
   4476 ****         7.5000  28.0000  23.7500 Du        
   4477 ****         7.5000  28.0000  24.0000 Du        
   4478 ****         7.5000  28.0000  24.2500 Du        
   4479 ****         7.5000  28.0000  24.5000 Du        
   4480 ****         7.5000  28.0000  24.7500 Du        
   4481 ****         7.5000  28.0000  25.0000 Du        
   4482 ****         7.5000  28.0000  25.2500 Du        
   4483 ****         7.5000  28.0000  25.5000 Du        
   4484 ****         7.5000  28.0000  25.7500 Du        
   4485 ****         7.5000  28.0000  26.0000 Du        
   4486 ****         7.5000  28.0000  26.2500 Du        
   4487 ****         7.5000  28.0000  26.5000 Du        
   4488 ****         7.5000  28.0000  26.7500 Du        
   4489 ****         7.5000  28.0000  27.0000 Du        
   4490 ****         7.5000  28.0000  27.2500 Du        
   4491 ****         7.5000  28.2500  17.7500 Du        
   4492 ****         7.5000  28.2500  18.0000 Du        
   4493 ****         7.5000  28.2500  23.7500 Du        
   4494 ****         7.5000  28.2500  24.0000 Du        
   4495 ****         7.5000  28.2500  24.2500 Du        
   4496 ****         7.5000  28.2500  24.5000 Du        
   4497 ****         7.5000  28.2500  24.7500 Du        
   4498 ****         7.5000  28.2500  25.0000 Du        
   4499 ****         7.5000  28.2500  25.2500 Du        
   4500 ****         7.5000  28.2500  25.5000 Du        
   4501 ****         7.5000  28.2500  25.7500 Du        
   4502 ****         7.5000  28.2500  26.0000 Du        
   4503 ****         7.5000  28.2500  26.2500 Du        
   4504 ****         7.5000  28.2500  26.5000 Du        
   4505 ****         7.5000  28.2500  26.7500 Du        
   4506 ****         7.5000  28.2500  27.0000 Du        
   4507 ****         7.5000  28.5000  24.5000 Du        
   4508 ****         7.5000  28.5000  24.7500 Du        
   4509 ****         7.5000  28.5000  25.0000 Du        
   4510 ****         7.5000  28.5000  25.2500 Du        
   4511 ****         7.5000  28.7500  24.7500 Du        
   4512 ****         7.5000  28.7500  25.0000 Du        
   4513 ****         7.5000  28.7500  25.2500 Du        
   4514 ****         7.7500  19.5000  30.5000 Du        
   4515 ****         7.7500  19.5000  30.7500 Du        
   4516 ****         7.7500  19.7500  29.2500 Du        
   4517 ****         7.7500  19.7500  29.5000 Du        
   4518 ****         7.7500  19.7500  29.7500 Du        
   4519 ****         7.7500  19.7500  30.0000 Du        
   4520 ****         7.7500  19.7500  30.2500 Du        
   4521 ****         7.7500  19.7500  30.5000 Du        
   4522 ****         7.7500  19.7500  30.7500 Du        
   4523 ****         7.7500  20.0000  29.0000 Du        
   4524 ****         7.7500  20.0000  29.2500 Du        
   4525 ****         7.7500  20.0000  29.5000 Du        
   4526 ****         7.7500  20.0000  29.7500 Du        
   4527 ****         7.7500  20.0000  30.0000 Du        
   4528 ****         7.7500  20.0000  30.2500 Du        
   4529 ****         7.7500  20.0000  30.5000 Du        
   4530 ****         7.7500  20.2500  28.7500 Du        
   4531 ****         7.7500  20.2500  29.0000 Du        
   4532 ****         7.7500  20.2500  29.2500 Du        
   4533 ****         7.7500  20.2500  29.5000 Du        
   4534 ****         7.7500  20.2500  29.7500 Du        
   4535 ****         7.7500  20.2500  30.0000 Du        
   4536 ****         7.7500  20.5000  28.7500 Du        
   4537 ****         7.7500  20.5000  29.0000 Du        
   4538 ****         7.7500  20.5000  29.2500 Du        
   4539 ****         7.7500  20.5000  29.5000 Du        
   4540 ****         7.7500  20.5000  29.7500 Du        
   4541 ****         7.7500  20.5000  30.0000 Du        
   4542 ****         7.7500  25.0000  16.7500 Du        
   4543 ****         7.7500  25.0000  17.0000 Du        
   4544 ****         7.7500  25.2500  16.7500 Du        
   4545 ****         7.7500  25.2500  17.0000 Du        
   4546 ****         7.7500  25.2500  17.2500 Du        
   4547 ****         7.7500  25.5000  16.7500 Du        
   4548 ****         7.7500  25.5000  17.0000 Du        
   4549 ****         7.7500  25.5000  17.2500 Du        
   4550 ****         7.7500  25.5000  17.5000 Du        
   4551 ****         7.7500  25.5000  17.7500 Du        
   4552 ****         7.7500  25.7500  16.7500 Du        
   4553 ****         7.7500  25.7500  17.0000 Du        
   4554 ****         7.7500  25.7500  17.2500 Du        
   4555 ****         7.7500  25.7500  17.5000 Du        
   4556 ****         7.7500  25.7500  17.7500 Du        
   4557 ****         7.7500  25.7500  18.0000 Du        
   4558 ****         7.7500  25.7500  18.2500 Du        
   4559 ****         7.7500  26.0000  16.7500 Du        
   4560 ****         7.7500  26.0000  17.0000 Du        
   4561 ****         7.7500  26.0000  17.2500 Du        
   4562 ****         7.7500  26.0000  17.5000 Du        
   4563 ****         7.7500  26.0000  17.7500 Du        
   4564 ****         7.7500  26.0000  18.0000 Du        
   4565 ****         7.7500  26.0000  18.2500 Du        
   4566 ****         7.7500  26.0000  18.5000 Du        
   4567 ****         7.7500  26.0000  18.7500 Du        
   4568 ****         7.7500  26.0000  19.0000 Du        
   4569 ****         7.7500  26.0000  19.2500 Du        
   4570 ****         7.7500  26.2500  16.7500 Du        
   4571 ****         7.7500  26.2500  17.0000 Du        
   4572 ****         7.7500  26.2500  17.2500 Du        
   4573 ****         7.7500  26.2500  17.5000 Du        
   4574 ****         7.7500  26.2500  17.7500 Du        
   4575 ****         7.7500  26.2500  18.0000 Du        
   4576 ****         7.7500  26.2500  18.2500 Du        
   4577 ****         7.7500  26.2500  18.5000 Du        
   4578 ****         7.7500  26.2500  18.7500 Du        
   4579 ****         7.7500  26.2500  19.0000 Du        
   4580 ****         7.7500  26.2500  19.2500 Du        
   4581 ****         7.7500  26.2500  19.5000 Du        
   4582 ****         7.7500  26.2500  19.7500 Du        
   4583 ****         7.7500  26.2500  20.0000 Du        
   4584 ****         7.7500  26.5000  16.7500 Du        
   4585 ****         7.7500  26.5000  17.0000 Du        
   4586 ****         7.7500  26.5000  17.2500 Du        
   4587 ****         7.7500  26.5000  17.5000 Du        
   4588 ****         7.7500  26.5000  17.7500 Du        
   4589 ****         7.7500  26.5000  18.0000 Du        
   4590 ****         7.7500  26.5000  18.2500 Du        
   4591 ****         7.7500  26.5000  18.5000 Du        
   4592 ****         7.7500  26.5000  18.7500 Du        
   4593 ****         7.7500  26.5000  19.0000 Du        
   4594 ****         7.7500  26.5000  19.2500 Du        
   4595 ****         7.7500  26.5000  19.5000 Du        
   4596 ****         7.7500  26.5000  19.7500 Du        
   4597 ****         7.7500  26.5000  20.0000 Du        
   4598 ****         7.7500  26.5000  20.2500 Du        
   4599 ****         7.7500  26.7500  16.7500 Du        
   4600 ****         7.7500  26.7500  17.0000 Du        
   4601 ****         7.7500  26.7500  17.2500 Du        
   4602 ****         7.7500  26.7500  17.5000 Du        
   4603 ****         7.7500  26.7500  17.7500 Du        
   4604 ****         7.7500  26.7500  18.0000 Du        
   4605 ****         7.7500  26.7500  18.2500 Du        
   4606 ****         7.7500  26.7500  18.5000 Du        
   4607 ****         7.7500  26.7500  18.7500 Du        
   4608 ****         7.7500  26.7500  19.0000 Du        
   4609 ****         7.7500  26.7500  19.2500 Du        
   4610 ****         7.7500  26.7500  19.5000 Du        
   4611 ****         7.7500  26.7500  19.7500 Du        
   4612 ****         7.7500  26.7500  20.0000 Du        
   4613 ****         7.7500  26.7500  20.2500 Du        
   4614 ****         7.7500  26.7500  25.0000 Du        
   4615 ****         7.7500  26.7500  25.2500 Du        
   4616 ****         7.7500  26.7500  25.5000 Du        
   4617 ****         7.7500  26.7500  25.7500 Du        
   4618 ****         7.7500  26.7500  26.0000 Du        
   4619 ****         7.7500  27.0000  16.7500 Du        
   4620 ****         7.7500  27.0000  17.0000 Du        
   4621 ****         7.7500  27.0000  17.2500 Du        
   4622 ****         7.7500  27.0000  17.5000 Du        
   4623 ****         7.7500  27.0000  17.7500 Du        
   4624 ****         7.7500  27.0000  18.0000 Du        
   4625 ****         7.7500  27.0000  18.2500 Du        
   4626 ****         7.7500  27.0000  18.5000 Du        
   4627 ****         7.7500  27.0000  18.7500 Du        
   4628 ****         7.7500  27.0000  19.0000 Du        
   4629 ****         7.7500  27.0000  19.2500 Du        
   4630 ****         7.7500  27.0000  19.5000 Du        
   4631 ****         7.7500  27.0000  19.7500 Du        
   4632 ****         7.7500  27.0000  20.0000 Du        
   4633 ****         7.7500  27.0000  20.2500 Du        
   4634 ****         7.7500  27.0000  25.0000 Du        
   4635 ****         7.7500  27.0000  25.2500 Du        
   4636 ****         7.7500  27.0000  25.5000 Du        
   4637 ****         7.7500  27.0000  25.7500 Du        
   4638 ****         7.7500  27.0000  26.0000 Du        
   4639 ****         7.7500  27.0000  26.2500 Du        
   4640 ****         7.7500  27.2500  17.0000 Du        
   4641 ****         7.7500  27.2500  17.2500 Du        
   4642 ****         7.7500  27.2500  17.5000 Du        
   4643 ****         7.7500  27.2500  17.7500 Du        
   4644 ****         7.7500  27.2500  18.0000 Du        
   4645 ****         7.7500  27.2500  18.2500 Du        
   4646 ****         7.7500  27.2500  18.5000 Du        
   4647 ****         7.7500  27.2500  18.7500 Du        
   4648 ****         7.7500  27.2500  19.0000 Du        
   4649 ****         7.7500  27.2500  19.2500 Du        
   4650 ****         7.7500  27.2500  19.5000 Du        
   4651 ****         7.7500  27.2500  19.7500 Du        
   4652 ****         7.7500  27.2500  20.0000 Du        
   4653 ****         7.7500  27.2500  20.2500 Du        
   4654 ****         7.7500  27.2500  23.5000 Du        
   4655 ****         7.7500  27.2500  23.7500 Du        
   4656 ****         7.7500  27.2500  25.0000 Du        
   4657 ****         7.7500  27.2500  25.2500 Du        
   4658 ****         7.7500  27.2500  25.5000 Du        
   4659 ****         7.7500  27.2500  25.7500 Du        
   4660 ****         7.7500  27.2500  26.0000 Du        
   4661 ****         7.7500  27.2500  26.2500 Du        
   4662 ****         7.7500  27.2500  26.5000 Du        
   4663 ****         7.7500  27.5000  17.0000 Du        
   4664 ****         7.7500  27.5000  17.2500 Du        
   4665 ****         7.7500  27.5000  17.5000 Du        
   4666 ****         7.7500  27.5000  17.7500 Du        
   4667 ****         7.7500  27.5000  18.0000 Du        
   4668 ****         7.7500  27.5000  18.2500 Du        
   4669 ****         7.7500  27.5000  18.5000 Du        
   4670 ****         7.7500  27.5000  18.7500 Du        
   4671 ****         7.7500  27.5000  19.0000 Du        
   4672 ****         7.7500  27.5000  19.2500 Du        
   4673 ****         7.7500  27.5000  19.5000 Du        
   4674 ****         7.7500  27.5000  19.7500 Du        
   4675 ****         7.7500  27.5000  20.0000 Du        
   4676 ****         7.7500  27.5000  20.2500 Du        
   4677 ****         7.7500  27.5000  25.5000 Du        
   4678 ****         7.7500  27.5000  25.7500 Du        
   4679 ****         7.7500  27.5000  26.0000 Du        
   4680 ****         7.7500  27.5000  26.2500 Du        
   4681 ****         7.7500  27.5000  26.5000 Du        
   4682 ****         7.7500  27.5000  26.7500 Du        
   4683 ****         7.7500  27.7500  17.2500 Du        
   4684 ****         7.7500  27.7500  17.5000 Du        
   4685 ****         7.7500  27.7500  17.7500 Du        
   4686 ****         7.7500  27.7500  18.0000 Du        
   4687 ****         7.7500  27.7500  18.2500 Du        
   4688 ****         7.7500  27.7500  18.5000 Du        
   4689 ****         7.7500  27.7500  18.7500 Du        
   4690 ****         7.7500  27.7500  19.0000 Du        
   4691 ****         7.7500  27.7500  19.2500 Du        
   4692 ****         7.7500  27.7500  19.5000 Du        
   4693 ****         7.7500  27.7500  24.2500 Du        
   4694 ****         7.7500  27.7500  25.0000 Du        
   4695 ****         7.7500  27.7500  25.2500 Du        
   4696 ****         7.7500  27.7500  25.5000 Du        
   4697 ****         7.7500  27.7500  25.7500 Du        
   4698 ****         7.7500  27.7500  26.0000 Du        
   4699 ****         7.7500  27.7500  26.2500 Du        
   4700 ****         7.7500  27.7500  26.5000 Du        
   4701 ****         7.7500  27.7500  26.7500 Du        
   4702 ****         7.7500  27.7500  27.0000 Du        
   4703 ****         7.7500  28.0000  17.5000 Du        
   4704 ****         7.7500  28.0000  17.7500 Du        
   4705 ****         7.7500  28.0000  18.0000 Du        
   4706 ****         7.7500  28.0000  18.2500 Du        
   4707 ****         7.7500  28.0000  18.5000 Du        
   4708 ****         7.7500  28.0000  18.7500 Du        
   4709 ****         7.7500  28.0000  24.0000 Du        
   4710 ****         7.7500  28.0000  24.2500 Du        
   4711 ****         7.7500  28.0000  24.7500 Du        
   4712 ****         7.7500  28.0000  25.0000 Du        
   4713 ****         7.7500  28.0000  25.2500 Du        
   4714 ****         7.7500  28.0000  25.5000 Du        
   4715 ****         7.7500  28.0000  25.7500 Du        
   4716 ****         7.7500  28.0000  26.0000 Du        
   4717 ****         7.7500  28.0000  26.2500 Du        
   4718 ****         7.7500  28.0000  26.5000 Du        
   4719 ****         7.7500  28.0000  26.7500 Du        
   4720 ****         7.7500  28.2500  17.7500 Du        
   4721 ****         7.7500  28.2500  18.0000 Du        
   4722 ****         7.7500  28.2500  18.2500 Du        
   4723 ****         7.7500  28.2500  23.7500 Du        
   4724 ****         7.7500  28.2500  24.0000 Du        
   4725 ****         7.7500  28.2500  24.2500 Du        
   4726 ****         7.7500  28.2500  24.7500 Du        
   4727 ****         7.7500  28.2500  25.0000 Du        
   4728 ****         7.7500  28.2500  25.2500 Du        
   4729 ****         7.7500  28.2500  25.5000 Du        
   4730 ****         7.7500  28.2500  25.7500 Du        
   4731 ****         7.7500  28.2500  26.0000 Du        
   4732 ****         7.7500  28.2500  26.5000 Du        
   4733 ****         7.7500  28.5000  18.0000 Du        
   4734 ****         7.7500  28.5000  24.5000 Du        
   4735 ****         7.7500  28.5000  24.7500 Du        
   4736 ****         7.7500  28.5000  25.0000 Du        
   4737 ****         7.7500  28.5000  25.2500 Du        
   4738 ****         7.7500  28.7500  24.7500 Du        
   4739 ****         7.7500  28.7500  25.0000 Du        
   4740 ****         7.7500  28.7500  25.2500 Du        
   4741 ****         8.0000  19.5000  30.5000 Du        
   4742 ****         8.0000  19.5000  30.7500 Du        
   4743 ****         8.0000  19.5000  31.0000 Du        
   4744 ****         8.0000  19.5000  31.2500 Du        
   4745 ****         8.0000  19.7500  23.2500 Du        
   4746 ****         8.0000  19.7500  23.7500 Du        
   4747 ****         8.0000  19.7500  24.0000 Du        
   4748 ****         8.0000  19.7500  29.5000 Du        
   4749 ****         8.0000  19.7500  29.7500 Du        
   4750 ****         8.0000  19.7500  30.0000 Du        
   4751 ****         8.0000  19.7500  30.2500 Du        
   4752 ****         8.0000  19.7500  30.5000 Du        
   4753 ****         8.0000  19.7500  30.7500 Du        
   4754 ****         8.0000  19.7500  31.0000 Du        
   4755 ****         8.0000  19.7500  31.2500 Du        
   4756 ****         8.0000  20.0000  23.2500 Du        
   4757 ****         8.0000  20.0000  23.7500 Du        
   4758 ****         8.0000  20.0000  24.0000 Du        
   4759 ****         8.0000  20.0000  29.2500 Du        
   4760 ****         8.0000  20.0000  29.5000 Du        
   4761 ****         8.0000  20.0000  29.7500 Du        
   4762 ****         8.0000  20.0000  30.0000 Du        
   4763 ****         8.0000  20.0000  30.2500 Du        
   4764 ****         8.0000  20.0000  30.5000 Du        
   4765 ****         8.0000  20.0000  30.7500 Du        
   4766 ****         8.0000  20.0000  31.0000 Du        
   4767 ****         8.0000  20.0000  31.2500 Du        
   4768 ****         8.0000  20.2500  29.2500 Du        
   4769 ****         8.0000  20.2500  29.5000 Du        
   4770 ****         8.0000  20.2500  29.7500 Du        
   4771 ****         8.0000  20.2500  30.0000 Du        
   4772 ****         8.0000  20.2500  30.2500 Du        
   4773 ****         8.0000  20.2500  30.5000 Du        
   4774 ****         8.0000  20.5000  29.2500 Du        
   4775 ****         8.0000  20.5000  29.5000 Du        
   4776 ****         8.0000  20.5000  29.7500 Du        
   4777 ****         8.0000  20.5000  30.0000 Du        
   4778 ****         8.0000  20.5000  30.2500 Du        
   4779 ****         8.0000  25.0000  16.7500 Du        
   4780 ****         8.0000  25.0000  17.0000 Du        
   4781 ****         8.0000  25.2500  16.7500 Du        
   4782 ****         8.0000  25.2500  17.0000 Du        
   4783 ****         8.0000  25.2500  17.2500 Du        
   4784 ****         8.0000  25.5000  16.5000 Du        
   4785 ****         8.0000  25.5000  16.7500 Du        
   4786 ****         8.0000  25.5000  17.0000 Du        
   4787 ****         8.0000  25.5000  17.2500 Du        
   4788 ****         8.0000  25.5000  17.5000 Du        
   4789 ****         8.0000  25.5000  17.7500 Du        
   4790 ****         8.0000  25.5000  18.0000 Du        
   4791 ****         8.0000  25.7500  16.5000 Du        
   4792 ****         8.0000  25.7500  16.7500 Du        
   4793 ****         8.0000  25.7500  17.0000 Du        
   4794 ****         8.0000  25.7500  17.2500 Du        
   4795 ****         8.0000  25.7500  17.5000 Du        
   4796 ****         8.0000  25.7500  17.7500 Du        
   4797 ****         8.0000  25.7500  18.0000 Du        
   4798 ****         8.0000  25.7500  18.2500 Du        
   4799 ****         8.0000  25.7500  18.5000 Du        
   4800 ****         8.0000  25.7500  18.7500 Du        
   4801 ****         8.0000  26.0000  16.5000 Du        
   4802 ****         8.0000  26.0000  16.7500 Du        
   4803 ****         8.0000  26.0000  17.0000 Du        
   4804 ****         8.0000  26.0000  17.2500 Du        
   4805 ****         8.0000  26.0000  17.5000 Du        
   4806 ****         8.0000  26.0000  17.7500 Du        
   4807 ****         8.0000  26.0000  18.0000 Du        
   4808 ****         8.0000  26.0000  18.2500 Du        
   4809 ****         8.0000  26.0000  18.5000 Du        
   4810 ****         8.0000  26.0000  18.7500 Du        
   4811 ****         8.0000  26.0000  19.0000 Du        
   4812 ****         8.0000  26.0000  19.2500 Du        
   4813 ****         8.0000  26.0000  19.5000 Du        
   4814 ****         8.0000  26.0000  19.7500 Du        
   4815 ****         8.0000  26.2500  16.5000 Du        
   4816 ****         8.0000  26.2500  16.7500 Du        
   4817 ****         8.0000  26.2500  17.0000 Du        
   4818 ****         8.0000  26.2500  17.2500 Du        
   4819 ****         8.0000  26.2500  17.5000 Du        
   4820 ****         8.0000  26.2500  17.7500 Du        
   4821 ****         8.0000  26.2500  18.0000 Du        
   4822 ****         8.0000  26.2500  18.2500 Du        
   4823 ****         8.0000  26.2500  18.5000 Du        
   4824 ****         8.0000  26.2500  18.7500 Du        
   4825 ****         8.0000  26.2500  19.0000 Du        
   4826 ****         8.0000  26.2500  19.2500 Du        
   4827 ****         8.0000  26.2500  19.5000 Du        
   4828 ****         8.0000  26.2500  19.7500 Du        
   4829 ****         8.0000  26.2500  20.0000 Du        
   4830 ****         8.0000  26.2500  20.2500 Du        
   4831 ****         8.0000  26.5000  16.7500 Du        
   4832 ****         8.0000  26.5000  17.0000 Du        
   4833 ****         8.0000  26.5000  17.2500 Du        
   4834 ****         8.0000  26.5000  17.5000 Du        
   4835 ****         8.0000  26.5000  17.7500 Du        
   4836 ****         8.0000  26.5000  18.0000 Du        
   4837 ****         8.0000  26.5000  18.2500 Du        
   4838 ****         8.0000  26.5000  18.5000 Du        
   4839 ****         8.0000  26.5000  18.7500 Du        
   4840 ****         8.0000  26.5000  19.0000 Du        
   4841 ****         8.0000  26.5000  19.2500 Du        
   4842 ****         8.0000  26.5000  19.5000 Du        
   4843 ****         8.0000  26.5000  19.7500 Du        
   4844 ****         8.0000  26.5000  20.0000 Du        
   4845 ****         8.0000  26.5000  20.2500 Du        
   4846 ****         8.0000  26.7500  16.7500 Du        
   4847 ****         8.0000  26.7500  17.0000 Du        
   4848 ****         8.0000  26.7500  17.2500 Du        
   4849 ****         8.0000  26.7500  17.5000 Du        
   4850 ****         8.0000  26.7500  17.7500 Du        
   4851 ****         8.0000  26.7500  18.0000 Du        
   4852 ****         8.0000  26.7500  18.2500 Du        
   4853 ****         8.0000  26.7500  18.5000 Du        
   4854 ****         8.0000  26.7500  18.7500 Du        
   4855 ****         8.0000  26.7500  19.0000 Du        
   4856 ****         8.0000  26.7500  19.2500 Du        
   4857 ****         8.0000  26.7500  19.5000 Du        
   4858 ****         8.0000  26.7500  19.7500 Du        
   4859 ****         8.0000  26.7500  20.0000 Du        
   4860 ****         8.0000  26.7500  20.2500 Du        
   4861 ****         8.0000  26.7500  20.5000 Du        
   4862 ****         8.0000  26.7500  20.7500 Du        
   4863 ****         8.0000  26.7500  25.7500 Du        
   4864 ****         8.0000  27.0000  16.7500 Du        
   4865 ****         8.0000  27.0000  17.0000 Du        
   4866 ****         8.0000  27.0000  17.2500 Du        
   4867 ****         8.0000  27.0000  17.5000 Du        
   4868 ****         8.0000  27.0000  17.7500 Du        
   4869 ****         8.0000  27.0000  18.0000 Du        
   4870 ****         8.0000  27.0000  18.2500 Du        
   4871 ****         8.0000  27.0000  18.5000 Du        
   4872 ****         8.0000  27.0000  18.7500 Du        
   4873 ****         8.0000  27.0000  19.0000 Du        
   4874 ****         8.0000  27.0000  19.2500 Du        
   4875 ****         8.0000  27.0000  19.5000 Du        
   4876 ****         8.0000  27.0000  19.7500 Du        
   4877 ****         8.0000  27.0000  20.0000 Du        
   4878 ****         8.0000  27.0000  20.2500 Du        
   4879 ****         8.0000  27.0000  20.5000 Du        
   4880 ****         8.0000  27.0000  20.7500 Du        
   4881 ****         8.0000  27.0000  21.0000 Du        
   4882 ****         8.0000  27.0000  25.0000 Du        
   4883 ****         8.0000  27.0000  25.7500 Du        
   4884 ****         8.0000  27.0000  26.0000 Du        
   4885 ****         8.0000  27.2500  17.0000 Du        
   4886 ****         8.0000  27.2500  17.2500 Du        
   4887 ****         8.0000  27.2500  17.5000 Du        
   4888 ****         8.0000  27.2500  17.7500 Du        
   4889 ****         8.0000  27.2500  18.0000 Du        
   4890 ****         8.0000  27.2500  18.2500 Du        
   4891 ****         8.0000  27.2500  18.5000 Du        
   4892 ****         8.0000  27.2500  18.7500 Du        
   4893 ****         8.0000  27.2500  19.0000 Du        
   4894 ****         8.0000  27.2500  19.2500 Du        
   4895 ****         8.0000  27.2500  19.5000 Du        
   4896 ****         8.0000  27.2500  19.7500 Du        
   4897 ****         8.0000  27.2500  20.0000 Du        
   4898 ****         8.0000  27.2500  20.2500 Du        
   4899 ****         8.0000  27.2500  20.5000 Du        
   4900 ****         8.0000  27.2500  20.7500 Du        
   4901 ****         8.0000  27.2500  21.0000 Du        
   4902 ****         8.0000  27.2500  25.7500 Du        
   4903 ****         8.0000  27.2500  26.0000 Du        
   4904 ****         8.0000  27.2500  26.2500 Du        
   4905 ****         8.0000  27.5000  17.0000 Du        
   4906 ****         8.0000  27.5000  17.2500 Du        
   4907 ****         8.0000  27.5000  17.5000 Du        
   4908 ****         8.0000  27.5000  17.7500 Du        
   4909 ****         8.0000  27.5000  18.0000 Du        
   4910 ****         8.0000  27.5000  18.2500 Du        
   4911 ****         8.0000  27.5000  18.5000 Du        
   4912 ****         8.0000  27.5000  18.7500 Du        
   4913 ****         8.0000  27.5000  19.0000 Du        
   4914 ****         8.0000  27.5000  19.2500 Du        
   4915 ****         8.0000  27.5000  19.5000 Du        
   4916 ****         8.0000  27.5000  19.7500 Du        
   4917 ****         8.0000  27.5000  20.0000 Du        
   4918 ****         8.0000  27.5000  20.2500 Du        
   4919 ****         8.0000  27.5000  20.5000 Du        
   4920 ****         8.0000  27.5000  20.7500 Du        
   4921 ****         8.0000  27.5000  25.7500 Du        
   4922 ****         8.0000  27.5000  26.0000 Du        
   4923 ****         8.0000  27.5000  26.2500 Du        
   4924 ****         8.0000  27.5000  26.5000 Du        
   4925 ****         8.0000  27.7500  17.2500 Du        
   4926 ****         8.0000  27.7500  17.5000 Du        
   4927 ****         8.0000  27.7500  17.7500 Du        
   4928 ****         8.0000  27.7500  18.0000 Du        
   4929 ****         8.0000  27.7500  18.2500 Du        
   4930 ****         8.0000  27.7500  18.5000 Du        
   4931 ****         8.0000  27.7500  18.7500 Du        
   4932 ****         8.0000  27.7500  19.0000 Du        
   4933 ****         8.0000  27.7500  19.2500 Du        
   4934 ****         8.0000  27.7500  19.5000 Du        
   4935 ****         8.0000  27.7500  19.7500 Du        
   4936 ****         8.0000  27.7500  20.0000 Du        
   4937 ****         8.0000  27.7500  20.2500 Du        
   4938 ****         8.0000  27.7500  25.5000 Du        
   4939 ****         8.0000  27.7500  25.7500 Du        
   4940 ****         8.0000  27.7500  26.0000 Du        
   4941 ****         8.0000  27.7500  26.2500 Du        
   4942 ****         8.0000  27.7500  26.5000 Du        
   4943 ****         8.0000  27.7500  26.7500 Du        
   4944 ****         8.0000  28.0000  17.5000 Du        
   4945 ****         8.0000  28.0000  17.7500 Du        
   4946 ****         8.0000  28.0000  18.0000 Du        
   4947 ****         8.0000  28.0000  18.2500 Du        
   4948 ****         8.0000  28.0000  18.5000 Du        
   4949 ****         8.0000  28.0000  18.7500 Du        
   4950 ****         8.0000  28.0000  19.0000 Du        
   4951 ****         8.0000  28.0000  19.2500 Du        
   4952 ****         8.0000  28.0000  25.0000 Du        
   4953 ****         8.0000  28.0000  25.2500 Du        
   4954 ****         8.0000  28.0000  25.5000 Du        
   4955 ****         8.0000  28.0000  25.7500 Du        
   4956 ****         8.0000  28.0000  26.0000 Du        
   4957 ****         8.0000  28.0000  26.2500 Du        
   4958 ****         8.0000  28.0000  26.5000 Du        
   4959 ****         8.0000  28.2500  17.5000 Du        
   4960 ****         8.0000  28.2500  17.7500 Du        
   4961 ****         8.0000  28.2500  18.0000 Du        
   4962 ****         8.0000  28.2500  18.2500 Du        
   4963 ****         8.0000  28.2500  18.5000 Du        
   4964 ****         8.0000  28.2500  24.0000 Du        
   4965 ****         8.0000  28.2500  25.0000 Du        
   4966 ****         8.0000  28.2500  25.2500 Du        
   4967 ****         8.0000  28.5000  17.7500 Du        
   4968 ****         8.0000  28.5000  18.0000 Du        
   4969 ****         8.0000  28.5000  18.2500 Du        
   4970 ****         8.0000  28.5000  24.7500 Du        
   4971 ****         8.0000  28.5000  25.0000 Du        
   4972 ****         8.0000  28.7500  24.7500 Du        
   4973 ****         8.0000  28.7500  25.0000 Du        
   4974 ****         8.2500  19.5000  30.5000 Du        
   4975 ****         8.2500  19.5000  30.7500 Du        
   4976 ****         8.2500  19.5000  31.0000 Du        
   4977 ****         8.2500  19.5000  31.2500 Du        
   4978 ****         8.2500  19.7500  23.0000 Du        
   4979 ****         8.2500  19.7500  23.2500 Du        
   4980 ****         8.2500  19.7500  23.5000 Du        
   4981 ****         8.2500  19.7500  30.0000 Du        
   4982 ****         8.2500  19.7500  30.2500 Du        
   4983 ****         8.2500  19.7500  30.5000 Du        
   4984 ****         8.2500  19.7500  30.7500 Du        
   4985 ****         8.2500  19.7500  31.0000 Du        
   4986 ****         8.2500  19.7500  31.2500 Du        
   4987 ****         8.2500  20.0000  22.5000 Du        
   4988 ****         8.2500  20.0000  22.7500 Du        
   4989 ****         8.2500  20.0000  23.0000 Du        
   4990 ****         8.2500  20.0000  23.2500 Du        
   4991 ****         8.2500  20.0000  23.5000 Du        
   4992 ****         8.2500  20.0000  23.7500 Du        
   4993 ****         8.2500  20.0000  29.7500 Du        
   4994 ****         8.2500  20.0000  30.0000 Du        
   4995 ****         8.2500  20.0000  30.2500 Du        
   4996 ****         8.2500  20.0000  30.5000 Du        
   4997 ****         8.2500  20.0000  30.7500 Du        
   4998 ****         8.2500  20.0000  31.0000 Du        
   4999 ****         8.2500  20.0000  31.2500 Du        
   5000 ****         8.2500  20.2500  23.0000 Du        
   5001 ****         8.2500  20.2500  23.2500 Du        
   5002 ****         8.2500  20.2500  29.5000 Du        
   5003 ****         8.2500  20.2500  29.7500 Du        
   5004 ****         8.2500  20.2500  30.0000 Du        
   5005 ****         8.2500  20.2500  30.2500 Du        
   5006 ****         8.2500  20.2500  30.5000 Du        
   5007 ****         8.2500  20.2500  30.7500 Du        
   5008 ****         8.2500  20.2500  31.0000 Du        
   5009 ****         8.2500  20.2500  31.2500 Du        
   5010 ****         8.2500  20.5000  29.5000 Du        
   5011 ****         8.2500  20.5000  29.7500 Du        
   5012 ****         8.2500  20.5000  30.0000 Du        
   5013 ****         8.2500  20.5000  30.2500 Du        
   5014 ****         8.2500  20.5000  30.5000 Du        
   5015 ****         8.2500  22.0000  14.0000 Du        
   5016 ****         8.2500  22.0000  14.2500 Du        
   5017 ****         8.2500  25.0000  16.7500 Du        
   5018 ****         8.2500  25.0000  17.0000 Du        
   5019 ****         8.2500  25.2500  16.7500 Du        
   5020 ****         8.2500  25.2500  17.0000 Du        
   5021 ****         8.2500  25.2500  17.2500 Du        
   5022 ****         8.2500  25.2500  17.5000 Du        
   5023 ****         8.2500  25.5000  16.5000 Du        
   5024 ****         8.2500  25.5000  16.7500 Du        
   5025 ****         8.2500  25.5000  17.0000 Du        
   5026 ****         8.2500  25.5000  17.2500 Du        
   5027 ****         8.2500  25.5000  17.5000 Du        
   5028 ****         8.2500  25.5000  17.7500 Du        
   5029 ****         8.2500  25.5000  18.0000 Du        
   5030 ****         8.2500  25.5000  18.2500 Du        
   5031 ****         8.2500  25.7500  16.5000 Du        
   5032 ****         8.2500  25.7500  16.7500 Du        
   5033 ****         8.2500  25.7500  17.0000 Du        
   5034 ****         8.2500  25.7500  17.2500 Du        
   5035 ****         8.2500  25.7500  17.5000 Du        
   5036 ****         8.2500  25.7500  17.7500 Du        
   5037 ****         8.2500  25.7500  18.0000 Du        
   5038 ****         8.2500  25.7500  18.2500 Du        
   5039 ****         8.2500  25.7500  18.5000 Du        
   5040 ****         8.2500  25.7500  18.7500 Du        
   5041 ****         8.2500  25.7500  19.0000 Du        
   5042 ****         8.2500  25.7500  19.2500 Du        
   5043 ****         8.2500  26.0000  16.5000 Du        
   5044 ****         8.2500  26.0000  16.7500 Du        
   5045 ****         8.2500  26.0000  17.0000 Du        
   5046 ****         8.2500  26.0000  17.2500 Du        
   5047 ****         8.2500  26.0000  17.5000 Du        
   5048 ****         8.2500  26.0000  17.7500 Du        
   5049 ****         8.2500  26.0000  18.0000 Du        
   5050 ****         8.2500  26.0000  18.2500 Du        
   5051 ****         8.2500  26.0000  18.5000 Du        
   5052 ****         8.2500  26.0000  18.7500 Du        
   5053 ****         8.2500  26.0000  19.0000 Du        
   5054 ****         8.2500  26.0000  19.2500 Du        
   5055 ****         8.2500  26.0000  19.5000 Du        
   5056 ****         8.2500  26.0000  19.7500 Du        
   5057 ****         8.2500  26.0000  20.0000 Du        
   5058 ****         8.2500  26.0000  20.2500 Du        
   5059 ****         8.2500  26.2500  16.7500 Du        
   5060 ****         8.2500  26.2500  17.0000 Du        
   5061 ****         8.2500  26.2500  17.2500 Du        
   5062 ****         8.2500  26.2500  17.5000 Du        
   5063 ****         8.2500  26.2500  17.7500 Du        
   5064 ****         8.2500  26.2500  18.0000 Du        
   5065 ****         8.2500  26.2500  18.2500 Du        
   5066 ****         8.2500  26.2500  18.5000 Du        
   5067 ****         8.2500  26.2500  18.7500 Du        
   5068 ****         8.2500  26.2500  19.0000 Du        
   5069 ****         8.2500  26.2500  19.2500 Du        
   5070 ****         8.2500  26.2500  19.5000 Du        
   5071 ****         8.2500  26.2500  19.7500 Du        
   5072 ****         8.2500  26.2500  20.0000 Du        
   5073 ****         8.2500  26.2500  20.2500 Du        
   5074 ****         8.2500  26.5000  16.7500 Du        
   5075 ****         8.2500  26.5000  17.0000 Du        
   5076 ****         8.2500  26.5000  17.2500 Du        
   5077 ****         8.2500  26.5000  17.5000 Du        
   5078 ****         8.2500  26.5000  17.7500 Du        
   5079 ****         8.2500  26.5000  18.0000 Du        
   5080 ****         8.2500  26.5000  18.2500 Du        
   5081 ****         8.2500  26.5000  18.5000 Du        
   5082 ****         8.2500  26.5000  18.7500 Du        
   5083 ****         8.2500  26.5000  19.0000 Du        
   5084 ****         8.2500  26.5000  19.2500 Du        
   5085 ****         8.2500  26.5000  19.5000 Du        
   5086 ****         8.2500  26.5000  19.7500 Du        
   5087 ****         8.2500  26.5000  20.0000 Du        
   5088 ****         8.2500  26.5000  20.2500 Du        
   5089 ****         8.2500  26.5000  20.5000 Du        
   5090 ****         8.2500  26.7500  16.7500 Du        
   5091 ****         8.2500  26.7500  17.0000 Du        
   5092 ****         8.2500  26.7500  17.2500 Du        
   5093 ****         8.2500  26.7500  17.5000 Du        
   5094 ****         8.2500  26.7500  17.7500 Du        
   5095 ****         8.2500  26.7500  18.0000 Du        
   5096 ****         8.2500  26.7500  18.2500 Du        
   5097 ****         8.2500  26.7500  18.5000 Du        
   5098 ****         8.2500  26.7500  18.7500 Du        
   5099 ****         8.2500  26.7500  19.0000 Du        
   5100 ****         8.2500  26.7500  19.2500 Du        
   5101 ****         8.2500  26.7500  19.5000 Du        
   5102 ****         8.2500  26.7500  19.7500 Du        
   5103 ****         8.2500  26.7500  20.0000 Du        
   5104 ****         8.2500  26.7500  20.2500 Du        
   5105 ****         8.2500  26.7500  20.5000 Du        
   5106 ****         8.2500  26.7500  20.7500 Du        
   5107 ****         8.2500  27.0000  17.0000 Du        
   5108 ****         8.2500  27.0000  17.2500 Du        
   5109 ****         8.2500  27.0000  17.5000 Du        
   5110 ****         8.2500  27.0000  17.7500 Du        
   5111 ****         8.2500  27.0000  18.0000 Du        
   5112 ****         8.2500  27.0000  18.2500 Du        
   5113 ****         8.2500  27.0000  18.5000 Du        
   5114 ****         8.2500  27.0000  18.7500 Du        
   5115 ****         8.2500  27.0000  19.0000 Du        
   5116 ****         8.2500  27.0000  19.2500 Du        
   5117 ****         8.2500  27.0000  19.5000 Du        
   5118 ****         8.2500  27.0000  19.7500 Du        
   5119 ****         8.2500  27.0000  20.0000 Du        
   5120 ****         8.2500  27.0000  20.2500 Du        
   5121 ****         8.2500  27.0000  20.5000 Du        
   5122 ****         8.2500  27.0000  20.7500 Du        
   5123 ****         8.2500  27.0000  21.0000 Du        
   5124 ****         8.2500  27.2500  17.0000 Du        
   5125 ****         8.2500  27.2500  17.2500 Du        
   5126 ****         8.2500  27.2500  17.5000 Du        
   5127 ****         8.2500  27.2500  17.7500 Du        
   5128 ****         8.2500  27.2500  18.0000 Du        
   5129 ****         8.2500  27.2500  18.2500 Du        
   5130 ****         8.2500  27.2500  18.5000 Du        
   5131 ****         8.2500  27.2500  18.7500 Du        
   5132 ****         8.2500  27.2500  19.0000 Du        
   5133 ****         8.2500  27.2500  19.2500 Du        
   5134 ****         8.2500  27.2500  19.5000 Du        
   5135 ****         8.2500  27.2500  19.7500 Du        
   5136 ****         8.2500  27.2500  20.0000 Du        
   5137 ****         8.2500  27.2500  20.2500 Du        
   5138 ****         8.2500  27.2500  20.5000 Du        
   5139 ****         8.2500  27.2500  20.7500 Du        
   5140 ****         8.2500  27.2500  25.7500 Du        
   5141 ****         8.2500  27.2500  26.0000 Du        
   5142 ****         8.2500  27.5000  17.2500 Du        
   5143 ****         8.2500  27.5000  17.5000 Du        
   5144 ****         8.2500  27.5000  17.7500 Du        
   5145 ****         8.2500  27.5000  18.0000 Du        
   5146 ****         8.2500  27.5000  18.2500 Du        
   5147 ****         8.2500  27.5000  18.5000 Du        
   5148 ****         8.2500  27.5000  18.7500 Du        
   5149 ****         8.2500  27.5000  19.0000 Du        
   5150 ****         8.2500  27.5000  19.2500 Du        
   5151 ****         8.2500  27.5000  19.5000 Du        
   5152 ****         8.2500  27.5000  19.7500 Du        
   5153 ****         8.2500  27.5000  20.0000 Du        
   5154 ****         8.2500  27.5000  20.2500 Du        
   5155 ****         8.2500  27.5000  20.5000 Du        
   5156 ****         8.2500  27.5000  20.7500 Du        
   5157 ****         8.2500  27.5000  25.7500 Du        
   5158 ****         8.2500  27.5000  26.0000 Du        
   5159 ****         8.2500  27.7500  17.2500 Du        
   5160 ****         8.2500  27.7500  17.5000 Du        
   5161 ****         8.2500  27.7500  17.7500 Du        
   5162 ****         8.2500  27.7500  18.0000 Du        
   5163 ****         8.2500  27.7500  18.2500 Du        
   5164 ****         8.2500  27.7500  18.5000 Du        
   5165 ****         8.2500  27.7500  18.7500 Du        
   5166 ****         8.2500  27.7500  19.0000 Du        
   5167 ****         8.2500  27.7500  19.2500 Du        
   5168 ****         8.2500  27.7500  19.5000 Du        
   5169 ****         8.2500  27.7500  19.7500 Du        
   5170 ****         8.2500  27.7500  20.0000 Du        
   5171 ****         8.2500  27.7500  20.2500 Du        
   5172 ****         8.2500  27.7500  26.0000 Du        
   5173 ****         8.2500  28.0000  17.5000 Du        
   5174 ****         8.2500  28.0000  17.7500 Du        
   5175 ****         8.2500  28.0000  18.0000 Du        
   5176 ****         8.2500  28.0000  18.2500 Du        
   5177 ****         8.2500  28.0000  18.5000 Du        
   5178 ****         8.2500  28.0000  18.7500 Du        
   5179 ****         8.2500  28.0000  19.0000 Du        
   5180 ****         8.2500  28.0000  19.2500 Du        
   5181 ****         8.2500  28.0000  19.5000 Du        
   5182 ****         8.2500  28.2500  17.5000 Du        
   5183 ****         8.2500  28.2500  17.7500 Du        
   5184 ****         8.2500  28.2500  18.0000 Du        
   5185 ****         8.2500  28.2500  18.2500 Du        
   5186 ****         8.2500  28.2500  18.5000 Du        
   5187 ****         8.2500  28.2500  18.7500 Du        
   5188 ****         8.2500  28.2500  19.0000 Du        
   5189 ****         8.2500  28.5000  17.7500 Du        
   5190 ****         8.2500  28.5000  18.0000 Du        
   5191 ****         8.2500  28.5000  18.2500 Du        
   5192 ****         8.2500  28.5000  18.5000 Du        
   5193 ****         8.2500  28.7500  17.7500 Du        
   5194 ****         8.2500  28.7500  18.0000 Du        
   5195 ****         8.5000  19.5000  31.2500 Du        
   5196 ****         8.5000  19.7500  30.7500 Du        
   5197 ****         8.5000  19.7500  31.0000 Du        
   5198 ****         8.5000  19.7500  31.2500 Du        
   5199 ****         8.5000  20.0000  30.5000 Du        
   5200 ****         8.5000  20.0000  30.7500 Du        
   5201 ****         8.5000  20.0000  31.0000 Du        
   5202 ****         8.5000  20.0000  31.2500 Du        
   5203 ****         8.5000  20.2500  30.5000 Du        
   5204 ****         8.5000  20.2500  30.7500 Du        
   5205 ****         8.5000  20.2500  31.0000 Du        
   5206 ****         8.5000  20.2500  31.2500 Du        
   5207 ****         8.5000  25.0000  16.7500 Du        
   5208 ****         8.5000  25.0000  17.0000 Du        
   5209 ****         8.5000  25.0000  17.2500 Du        
   5210 ****         8.5000  25.2500  16.7500 Du        
   5211 ****         8.5000  25.2500  17.0000 Du        
   5212 ****         8.5000  25.2500  17.2500 Du        
   5213 ****         8.5000  25.2500  17.5000 Du        
   5214 ****         8.5000  25.2500  17.7500 Du        
   5215 ****         8.5000  25.5000  16.7500 Du        
   5216 ****         8.5000  25.5000  17.0000 Du        
   5217 ****         8.5000  25.5000  17.2500 Du        
   5218 ****         8.5000  25.5000  17.5000 Du        
   5219 ****         8.5000  25.5000  17.7500 Du        
   5220 ****         8.5000  25.5000  18.0000 Du        
   5221 ****         8.5000  25.5000  18.2500 Du        
   5222 ****         8.5000  25.5000  18.5000 Du        
   5223 ****         8.5000  25.7500  16.7500 Du        
   5224 ****         8.5000  25.7500  17.0000 Du        
   5225 ****         8.5000  25.7500  17.2500 Du        
   5226 ****         8.5000  25.7500  17.5000 Du        
   5227 ****         8.5000  25.7500  17.7500 Du        
   5228 ****         8.5000  25.7500  18.0000 Du        
   5229 ****         8.5000  25.7500  18.2500 Du        
   5230 ****         8.5000  25.7500  18.5000 Du        
   5231 ****         8.5000  25.7500  18.7500 Du        
   5232 ****         8.5000  25.7500  19.0000 Du        
   5233 ****         8.5000  25.7500  19.2500 Du        
   5234 ****         8.5000  26.0000  16.7500 Du        
   5235 ****         8.5000  26.0000  17.0000 Du        
   5236 ****         8.5000  26.0000  17.2500 Du        
   5237 ****         8.5000  26.0000  17.5000 Du        
   5238 ****         8.5000  26.0000  17.7500 Du        
   5239 ****         8.5000  26.0000  18.0000 Du        
   5240 ****         8.5000  26.0000  18.2500 Du        
   5241 ****         8.5000  26.0000  18.5000 Du        
   5242 ****         8.5000  26.0000  18.7500 Du        
   5243 ****         8.5000  26.0000  19.0000 Du        
   5244 ****         8.5000  26.0000  19.2500 Du        
   5245 ****         8.5000  26.0000  19.5000 Du        
   5246 ****         8.5000  26.0000  19.7500 Du        
   5247 ****         8.5000  26.0000  20.0000 Du        
   5248 ****         8.5000  26.0000  20.2500 Du        
   5249 ****         8.5000  26.2500  16.7500 Du        
   5250 ****         8.5000  26.2500  17.0000 Du        
   5251 ****         8.5000  26.2500  17.2500 Du        
   5252 ****         8.5000  26.2500  17.5000 Du        
   5253 ****         8.5000  26.2500  17.7500 Du        
   5254 ****         8.5000  26.2500  18.0000 Du        
   5255 ****         8.5000  26.2500  18.2500 Du        
   5256 ****         8.5000  26.2500  18.5000 Du        
   5257 ****         8.5000  26.2500  18.7500 Du        
   5258 ****         8.5000  26.2500  19.0000 Du        
   5259 ****         8.5000  26.2500  19.2500 Du        
   5260 ****         8.5000  26.2500  19.5000 Du        
   5261 ****         8.5000  26.2500  19.7500 Du        
   5262 ****         8.5000  26.2500  20.0000 Du        
   5263 ****         8.5000  26.2500  20.2500 Du        
   5264 ****         8.5000  26.5000  16.7500 Du        
   5265 ****         8.5000  26.5000  17.0000 Du        
   5266 ****         8.5000  26.5000  17.2500 Du        
   5267 ****         8.5000  26.5000  17.5000 Du        
   5268 ****         8.5000  26.5000  17.7500 Du        
   5269 ****         8.5000  26.5000  18.0000 Du        
   5270 ****         8.5000  26.5000  18.2500 Du        
   5271 ****         8.5000  26.5000  18.5000 Du        
   5272 ****         8.5000  26.5000  18.7500 Du        
   5273 ****         8.5000  26.5000  19.0000 Du        
   5274 ****         8.5000  26.5000  19.2500 Du        
   5275 ****         8.5000  26.5000  19.5000 Du        
   5276 ****         8.5000  26.5000  19.7500 Du        
   5277 ****         8.5000  26.5000  20.0000 Du        
   5278 ****         8.5000  26.5000  20.2500 Du        
   5279 ****         8.5000  26.7500  17.0000 Du        
   5280 ****         8.5000  26.7500  17.2500 Du        
   5281 ****         8.5000  26.7500  17.5000 Du        
   5282 ****         8.5000  26.7500  17.7500 Du        
   5283 ****         8.5000  26.7500  18.0000 Du        
   5284 ****         8.5000  26.7500  18.2500 Du        
   5285 ****         8.5000  26.7500  18.5000 Du        
   5286 ****         8.5000  26.7500  18.7500 Du        
   5287 ****         8.5000  26.7500  19.0000 Du        
   5288 ****         8.5000  26.7500  19.2500 Du        
   5289 ****         8.5000  26.7500  19.5000 Du        
   5290 ****         8.5000  26.7500  19.7500 Du        
   5291 ****         8.5000  26.7500  20.0000 Du        
   5292 ****         8.5000  26.7500  20.2500 Du        
   5293 ****         8.5000  27.0000  17.0000 Du        
   5294 ****         8.5000  27.0000  17.2500 Du        
   5295 ****         8.5000  27.0000  17.5000 Du        
   5296 ****         8.5000  27.0000  17.7500 Du        
   5297 ****         8.5000  27.0000  18.0000 Du        
   5298 ****         8.5000  27.0000  18.2500 Du        
   5299 ****         8.5000  27.0000  18.5000 Du        
   5300 ****         8.5000  27.0000  18.7500 Du        
   5301 ****         8.5000  27.0000  19.0000 Du        
   5302 ****         8.5000  27.0000  19.2500 Du        
   5303 ****         8.5000  27.0000  19.5000 Du        
   5304 ****         8.5000  27.0000  19.7500 Du        
   5305 ****         8.5000  27.0000  20.0000 Du        
   5306 ****         8.5000  27.0000  20.2500 Du        
   5307 ****         8.5000  27.2500  17.2500 Du        
   5308 ****         8.5000  27.2500  17.5000 Du        
   5309 ****         8.5000  27.2500  17.7500 Du        
   5310 ****         8.5000  27.2500  18.0000 Du        
   5311 ****         8.5000  27.2500  18.2500 Du        
   5312 ****         8.5000  27.2500  18.5000 Du        
   5313 ****         8.5000  27.2500  18.7500 Du        
   5314 ****         8.5000  27.2500  19.0000 Du        
   5315 ****         8.5000  27.2500  19.2500 Du        
   5316 ****         8.5000  27.2500  19.5000 Du        
   5317 ****         8.5000  27.2500  19.7500 Du        
   5318 ****         8.5000  27.2500  20.0000 Du        
   5319 ****         8.5000  27.2500  20.2500 Du        
   5320 ****         8.5000  27.5000  17.5000 Du        
   5321 ****         8.5000  27.5000  17.7500 Du        
   5322 ****         8.5000  27.5000  18.0000 Du        
   5323 ****         8.5000  27.5000  18.2500 Du        
   5324 ****         8.5000  27.5000  18.5000 Du        
   5325 ****         8.5000  27.5000  18.7500 Du        
   5326 ****         8.5000  27.5000  19.0000 Du        
   5327 ****         8.5000  27.5000  19.2500 Du        
   5328 ****         8.5000  27.5000  19.5000 Du        
   5329 ****         8.5000  27.5000  19.7500 Du        
   5330 ****         8.5000  27.5000  20.0000 Du        
   5331 ****         8.5000  27.5000  20.2500 Du        
   5332 ****         8.5000  27.5000  20.5000 Du        
   5333 ****         8.5000  27.7500  17.5000 Du        
   5334 ****         8.5000  27.7500  17.7500 Du        
   5335 ****         8.5000  27.7500  18.0000 Du        
   5336 ****         8.5000  27.7500  18.2500 Du        
   5337 ****         8.5000  27.7500  18.5000 Du        
   5338 ****         8.5000  27.7500  18.7500 Du        
   5339 ****         8.5000  27.7500  19.0000 Du        
   5340 ****         8.5000  27.7500  19.2500 Du        
   5341 ****         8.5000  27.7500  19.5000 Du        
   5342 ****         8.5000  27.7500  19.7500 Du        
   5343 ****         8.5000  27.7500  20.0000 Du        
   5344 ****         8.5000  27.7500  20.2500 Du        
   5345 ****         8.5000  28.0000  17.7500 Du        
   5346 ****         8.5000  28.0000  18.0000 Du        
   5347 ****         8.5000  28.0000  18.2500 Du        
   5348 ****         8.5000  28.0000  18.5000 Du        
   5349 ****         8.5000  28.0000  18.7500 Du        
   5350 ****         8.5000  28.0000  19.0000 Du        
   5351 ****         8.5000  28.0000  19.2500 Du        
   5352 ****         8.5000  28.0000  19.5000 Du        
   5353 ****         8.5000  28.0000  19.7500 Du        
   5354 ****         8.5000  28.0000  20.0000 Du        
   5355 ****         8.5000  28.2500  17.7500 Du        
   5356 ****         8.5000  28.2500  18.0000 Du        
   5357 ****         8.5000  28.2500  18.2500 Du        
   5358 ****         8.5000  28.2500  18.5000 Du        
   5359 ****         8.5000  28.2500  18.7500 Du        
   5360 ****         8.5000  28.2500  19.0000 Du        
   5361 ****         8.5000  28.2500  19.2500 Du        
   5362 ****         8.5000  28.5000  17.7500 Du        
   5363 ****         8.5000  28.5000  18.0000 Du        
   5364 ****         8.5000  28.5000  18.2500 Du        
   5365 ****         8.5000  28.5000  18.5000 Du        
   5366 ****         8.5000  28.7500  18.0000 Du        
   5367 ****         8.5000  28.7500  18.2500 Du        
   5368 ****         8.7500  19.7500  31.0000 Du        
   5369 ****         8.7500  19.7500  31.2500 Du        
   5370 ****         8.7500  20.0000  30.5000 Du        
   5371 ****         8.7500  20.0000  30.7500 Du        
   5372 ****         8.7500  20.0000  31.0000 Du        
   5373 ****         8.7500  20.0000  31.2500 Du        
   5374 ****         8.7500  20.2500  30.5000 Du        
   5375 ****         8.7500  20.2500  30.7500 Du        
   5376 ****         8.7500  20.2500  31.0000 Du        
   5377 ****         8.7500  20.2500  31.2500 Du        
   5378 ****         8.7500  20.5000  31.2500 Du        
   5379 ****         8.7500  25.0000  16.7500 Du        
   5380 ****         8.7500  25.0000  17.0000 Du        
   5381 ****         8.7500  25.0000  17.2500 Du        
   5382 ****         8.7500  25.2500  16.7500 Du        
   5383 ****         8.7500  25.2500  17.0000 Du        
   5384 ****         8.7500  25.2500  17.2500 Du        
   5385 ****         8.7500  25.2500  17.5000 Du        
   5386 ****         8.7500  25.2500  17.7500 Du        
   5387 ****         8.7500  25.2500  18.0000 Du        
   5388 ****         8.7500  25.5000  16.7500 Du        
   5389 ****         8.7500  25.5000  17.0000 Du        
   5390 ****         8.7500  25.5000  17.2500 Du        
   5391 ****         8.7500  25.5000  17.5000 Du        
   5392 ****         8.7500  25.5000  17.7500 Du        
   5393 ****         8.7500  25.5000  18.0000 Du        
   5394 ****         8.7500  25.5000  18.2500 Du        
   5395 ****         8.7500  25.5000  18.5000 Du        
   5396 ****         8.7500  25.5000  18.7500 Du        
   5397 ****         8.7500  25.5000  19.0000 Du        
   5398 ****         8.7500  25.7500  16.7500 Du        
   5399 ****         8.7500  25.7500  17.0000 Du        
   5400 ****         8.7500  25.7500  17.2500 Du        
   5401 ****         8.7500  25.7500  17.5000 Du        
   5402 ****         8.7500  25.7500  17.7500 Du        
   5403 ****         8.7500  25.7500  18.0000 Du        
   5404 ****         8.7500  25.7500  18.2500 Du        
   5405 ****         8.7500  25.7500  18.5000 Du        
   5406 ****         8.7500  25.7500  18.7500 Du        
   5407 ****         8.7500  25.7500  19.0000 Du        
   5408 ****         8.7500  25.7500  19.2500 Du        
   5409 ****         8.7500  25.7500  19.5000 Du        
   5410 ****         8.7500  25.7500  19.7500 Du        
   5411 ****         8.7500  25.7500  20.0000 Du        
   5412 ****         8.7500  26.0000  16.7500 Du        
   5413 ****         8.7500  26.0000  17.0000 Du        
   5414 ****         8.7500  26.0000  17.2500 Du        
   5415 ****         8.7500  26.0000  17.5000 Du        
   5416 ****         8.7500  26.0000  17.7500 Du        
   5417 ****         8.7500  26.0000  18.0000 Du        
   5418 ****         8.7500  26.0000  18.2500 Du        
   5419 ****         8.7500  26.0000  18.5000 Du        
   5420 ****         8.7500  26.0000  18.7500 Du        
   5421 ****         8.7500  26.0000  19.0000 Du        
   5422 ****         8.7500  26.0000  19.2500 Du        
   5423 ****         8.7500  26.0000  19.5000 Du        
   5424 ****         8.7500  26.0000  19.7500 Du        
   5425 ****         8.7500  26.0000  20.0000 Du        
   5426 ****         8.7500  26.0000  20.2500 Du        
   5427 ****         8.7500  26.2500  17.0000 Du        
   5428 ****         8.7500  26.2500  17.2500 Du        
   5429 ****         8.7500  26.2500  17.5000 Du        
   5430 ****         8.7500  26.2500  17.7500 Du        
   5431 ****         8.7500  26.2500  18.0000 Du        
   5432 ****         8.7500  26.2500  18.2500 Du        
   5433 ****         8.7500  26.2500  18.5000 Du        
   5434 ****         8.7500  26.2500  18.7500 Du        
   5435 ****         8.7500  26.2500  19.0000 Du        
   5436 ****         8.7500  26.2500  19.2500 Du        
   5437 ****         8.7500  26.2500  19.5000 Du        
   5438 ****         8.7500  26.2500  19.7500 Du        
   5439 ****         8.7500  26.2500  20.0000 Du        
   5440 ****         8.7500  26.2500  20.2500 Du        
   5441 ****         8.7500  26.5000  17.0000 Du        
   5442 ****         8.7500  26.5000  17.2500 Du        
   5443 ****         8.7500  26.5000  17.5000 Du        
   5444 ****         8.7500  26.5000  17.7500 Du        
   5445 ****         8.7500  26.5000  18.0000 Du        
   5446 ****         8.7500  26.5000  18.2500 Du        
   5447 ****         8.7500  26.5000  18.5000 Du        
   5448 ****         8.7500  26.5000  18.7500 Du        
   5449 ****         8.7500  26.5000  19.0000 Du        
   5450 ****         8.7500  26.5000  19.2500 Du        
   5451 ****         8.7500  26.5000  19.5000 Du        
   5452 ****         8.7500  26.5000  19.7500 Du        
   5453 ****         8.7500  26.5000  20.0000 Du        
   5454 ****         8.7500  26.5000  20.2500 Du        
   5455 ****         8.7500  26.7500  17.2500 Du        
   5456 ****         8.7500  26.7500  17.5000 Du        
   5457 ****         8.7500  26.7500  17.7500 Du        
   5458 ****         8.7500  26.7500  18.0000 Du        
   5459 ****         8.7500  26.7500  18.2500 Du        
   5460 ****         8.7500  26.7500  18.5000 Du        
   5461 ****         8.7500  26.7500  18.7500 Du        
   5462 ****         8.7500  26.7500  19.0000 Du        
   5463 ****         8.7500  26.7500  19.2500 Du        
   5464 ****         8.7500  26.7500  19.5000 Du        
   5465 ****         8.7500  26.7500  19.7500 Du        
   5466 ****         8.7500  26.7500  20.0000 Du        
   5467 ****         8.7500  26.7500  20.2500 Du        
   5468 ****         8.7500  27.0000  17.2500 Du        
   5469 ****         8.7500  27.0000  17.5000 Du        
   5470 ****         8.7500  27.0000  17.7500 Du        
   5471 ****         8.7500  27.0000  18.0000 Du        
   5472 ****         8.7500  27.0000  18.2500 Du        
   5473 ****         8.7500  27.0000  18.5000 Du        
   5474 ****         8.7500  27.0000  18.7500 Du        
   5475 ****         8.7500  27.0000  19.0000 Du        
   5476 ****         8.7500  27.0000  19.2500 Du        
   5477 ****         8.7500  27.0000  19.5000 Du        
   5478 ****         8.7500  27.0000  19.7500 Du        
   5479 ****         8.7500  27.0000  20.0000 Du        
   5480 ****         8.7500  27.0000  20.2500 Du        
   5481 ****         8.7500  27.2500  17.5000 Du        
   5482 ****         8.7500  27.2500  17.7500 Du        
   5483 ****         8.7500  27.2500  18.0000 Du        
   5484 ****         8.7500  27.2500  18.2500 Du        
   5485 ****         8.7500  27.2500  18.5000 Du        
   5486 ****         8.7500  27.2500  18.7500 Du        
   5487 ****         8.7500  27.2500  19.0000 Du        
   5488 ****         8.7500  27.2500  19.2500 Du        
   5489 ****         8.7500  27.2500  19.5000 Du        
   5490 ****         8.7500  27.2500  19.7500 Du        
   5491 ****         8.7500  27.2500  20.0000 Du        
   5492 ****         8.7500  27.2500  20.2500 Du        
   5493 ****         8.7500  27.5000  17.7500 Du        
   5494 ****         8.7500  27.5000  18.0000 Du        
   5495 ****         8.7500  27.5000  18.2500 Du        
   5496 ****         8.7500  27.5000  18.5000 Du        
   5497 ****         8.7500  27.5000  18.7500 Du        
   5498 ****         8.7500  27.5000  19.0000 Du        
   5499 ****         8.7500  27.5000  19.2500 Du        
   5500 ****         8.7500  27.5000  19.5000 Du        
   5501 ****         8.7500  27.5000  19.7500 Du        
   5502 ****         8.7500  27.5000  20.0000 Du        
   5503 ****         8.7500  27.5000  20.2500 Du        
   5504 ****         8.7500  27.7500  17.7500 Du        
   5505 ****         8.7500  27.7500  18.0000 Du        
   5506 ****         8.7500  27.7500  18.2500 Du        
   5507 ****         8.7500  27.7500  18.5000 Du        
   5508 ****         8.7500  27.7500  18.7500 Du        
   5509 ****         8.7500  27.7500  19.0000 Du        
   5510 ****         8.7500  27.7500  19.2500 Du        
   5511 ****         8.7500  27.7500  19.5000 Du        
   5512 ****         8.7500  27.7500  19.7500 Du        
   5513 ****         8.7500  27.7500  20.0000 Du        
   5514 ****         8.7500  27.7500  20.2500 Du        
   5515 ****         8.7500  28.0000  17.7500 Du        
   5516 ****         8.7500  28.0000  18.0000 Du        
   5517 ****         8.7500  28.0000  18.2500 Du        
   5518 ****         8.7500  28.0000  18.5000 Du        
   5519 ****         8.7500  28.0000  18.7500 Du        
   5520 ****         8.7500  28.0000  19.0000 Du        
   5521 ****         8.7500  28.0000  19.2500 Du        
   5522 ****         8.7500  28.0000  19.5000 Du        
   5523 ****         8.7500  28.0000  19.7500 Du        
   5524 ****         8.7500  28.0000  20.0000 Du        
   5525 ****         8.7500  28.0000  20.2500 Du        
   5526 ****         8.7500  28.2500  18.0000 Du        
   5527 ****         8.7500  28.2500  18.2500 Du        
   5528 ****         8.7500  28.2500  18.5000 Du        
   5529 ****         8.7500  28.2500  18.7500 Du        
   5530 ****         8.7500  28.2500  19.0000 Du        
   5531 ****         8.7500  28.2500  19.2500 Du        
   5532 ****         8.7500  28.2500  19.5000 Du        
   5533 ****         8.7500  28.2500  19.7500 Du        
   5534 ****         8.7500  28.5000  18.0000 Du        
   5535 ****         8.7500  28.5000  18.2500 Du        
   5536 ****         8.7500  28.5000  18.5000 Du        
   5537 ****         8.7500  28.5000  18.7500 Du        
   5538 ****         8.7500  28.5000  19.0000 Du        
   5539 ****         8.7500  28.7500  18.2500 Du        
   5540 ****         8.7500  28.7500  18.5000 Du        
   5541 ****         9.0000  20.0000  31.0000 Du        
   5542 ****         9.0000  20.0000  31.2500 Du        
   5543 ****         9.0000  20.2500  30.7500 Du        
   5544 ****         9.0000  20.2500  31.0000 Du        
   5545 ****         9.0000  20.2500  31.2500 Du        
   5546 ****         9.0000  20.5000  31.0000 Du        
   5547 ****         9.0000  20.5000  31.2500 Du        
   5548 ****         9.0000  25.0000  16.7500 Du        
   5549 ****         9.0000  25.0000  17.0000 Du        
   5550 ****         9.0000  25.0000  17.2500 Du        
   5551 ****         9.0000  25.2500  16.7500 Du        
   5552 ****         9.0000  25.2500  17.0000 Du        
   5553 ****         9.0000  25.2500  17.2500 Du        
   5554 ****         9.0000  25.2500  17.5000 Du        
   5555 ****         9.0000  25.2500  17.7500 Du        
   5556 ****         9.0000  25.2500  18.0000 Du        
   5557 ****         9.0000  25.2500  18.2500 Du        
   5558 ****         9.0000  25.5000  16.7500 Du        
   5559 ****         9.0000  25.5000  17.0000 Du        
   5560 ****         9.0000  25.5000  17.2500 Du        
   5561 ****         9.0000  25.5000  17.5000 Du        
   5562 ****         9.0000  25.5000  17.7500 Du        
   5563 ****         9.0000  25.5000  18.0000 Du        
   5564 ****         9.0000  25.5000  18.2500 Du        
   5565 ****         9.0000  25.5000  18.5000 Du        
   5566 ****         9.0000  25.5000  18.7500 Du        
   5567 ****         9.0000  25.5000  19.0000 Du        
   5568 ****         9.0000  25.5000  19.2500 Du        
   5569 ****         9.0000  25.7500  16.7500 Du        
   5570 ****         9.0000  25.7500  17.0000 Du        
   5571 ****         9.0000  25.7500  17.2500 Du        
   5572 ****         9.0000  25.7500  17.5000 Du        
   5573 ****         9.0000  25.7500  17.7500 Du        
   5574 ****         9.0000  25.7500  18.0000 Du        
   5575 ****         9.0000  25.7500  18.2500 Du        
   5576 ****         9.0000  25.7500  18.5000 Du        
   5577 ****         9.0000  25.7500  18.7500 Du        
   5578 ****         9.0000  25.7500  19.0000 Du        
   5579 ****         9.0000  25.7500  19.2500 Du        
   5580 ****         9.0000  25.7500  19.5000 Du        
   5581 ****         9.0000  25.7500  19.7500 Du        
   5582 ****         9.0000  25.7500  20.0000 Du        
   5583 ****         9.0000  26.0000  17.0000 Du        
   5584 ****         9.0000  26.0000  17.2500 Du        
   5585 ****         9.0000  26.0000  17.5000 Du        
   5586 ****         9.0000  26.0000  17.7500 Du        
   5587 ****         9.0000  26.0000  18.0000 Du        
   5588 ****         9.0000  26.0000  18.2500 Du        
   5589 ****         9.0000  26.0000  18.5000 Du        
   5590 ****         9.0000  26.0000  18.7500 Du        
   5591 ****         9.0000  26.0000  19.0000 Du        
   5592 ****         9.0000  26.0000  19.2500 Du        
   5593 ****         9.0000  26.0000  19.5000 Du        
   5594 ****         9.0000  26.0000  19.7500 Du        
   5595 ****         9.0000  26.0000  20.0000 Du        
   5596 ****         9.0000  26.0000  20.2500 Du        
   5597 ****         9.0000  26.2500  17.0000 Du        
   5598 ****         9.0000  26.2500  17.2500 Du        
   5599 ****         9.0000  26.2500  17.5000 Du        
   5600 ****         9.0000  26.2500  17.7500 Du        
   5601 ****         9.0000  26.2500  18.0000 Du        
   5602 ****         9.0000  26.2500  18.2500 Du        
   5603 ****         9.0000  26.2500  18.5000 Du        
   5604 ****         9.0000  26.2500  18.7500 Du        
   5605 ****         9.0000  26.2500  19.0000 Du        
   5606 ****         9.0000  26.2500  19.2500 Du        
   5607 ****         9.0000  26.2500  19.5000 Du        
   5608 ****         9.0000  26.2500  19.7500 Du        
   5609 ****         9.0000  26.2500  20.0000 Du        
   5610 ****         9.0000  26.2500  20.2500 Du        
   5611 ****         9.0000  26.5000  17.2500 Du        
   5612 ****         9.0000  26.5000  17.5000 Du        
   5613 ****         9.0000  26.5000  17.7500 Du        
   5614 ****         9.0000  26.5000  18.0000 Du        
   5615 ****         9.0000  26.5000  18.2500 Du        
   5616 ****         9.0000  26.5000  18.5000 Du        
   5617 ****         9.0000  26.5000  18.7500 Du        
   5618 ****         9.0000  26.5000  19.0000 Du        
   5619 ****         9.0000  26.5000  19.2500 Du        
   5620 ****         9.0000  26.5000  19.5000 Du        
   5621 ****         9.0000  26.5000  19.7500 Du        
   5622 ****         9.0000  26.5000  20.0000 Du        
   5623 ****         9.0000  26.7500  17.5000 Du        
   5624 ****         9.0000  26.7500  17.7500 Du        
   5625 ****         9.0000  26.7500  18.0000 Du        
   5626 ****         9.0000  26.7500  18.2500 Du        
   5627 ****         9.0000  26.7500  18.5000 Du        
   5628 ****         9.0000  26.7500  18.7500 Du        
   5629 ****         9.0000  26.7500  19.0000 Du        
   5630 ****         9.0000  26.7500  19.2500 Du        
   5631 ****         9.0000  26.7500  19.5000 Du        
   5632 ****         9.0000  26.7500  19.7500 Du        
   5633 ****         9.0000  26.7500  20.0000 Du        
   5634 ****         9.0000  26.7500  20.2500 Du        
   5635 ****         9.0000  27.0000  17.5000 Du        
   5636 ****         9.0000  27.0000  17.7500 Du        
   5637 ****         9.0000  27.0000  18.0000 Du        
   5638 ****         9.0000  27.0000  18.2500 Du        
   5639 ****         9.0000  27.0000  18.5000 Du        
   5640 ****         9.0000  27.0000  18.7500 Du        
   5641 ****         9.0000  27.0000  19.0000 Du        
   5642 ****         9.0000  27.0000  19.2500 Du        
   5643 ****         9.0000  27.0000  19.5000 Du        
   5644 ****         9.0000  27.0000  19.7500 Du        
   5645 ****         9.0000  27.0000  20.0000 Du        
   5646 ****         9.0000  27.0000  20.2500 Du        
   5647 ****         9.0000  27.2500  17.7500 Du        
   5648 ****         9.0000  27.2500  18.0000 Du        
   5649 ****         9.0000  27.2500  18.2500 Du        
   5650 ****         9.0000  27.2500  18.5000 Du        
   5651 ****         9.0000  27.2500  18.7500 Du        
   5652 ****         9.0000  27.2500  19.0000 Du        
   5653 ****         9.0000  27.2500  19.2500 Du        
   5654 ****         9.0000  27.2500  19.5000 Du        
   5655 ****         9.0000  27.2500  19.7500 Du        
   5656 ****         9.0000  27.2500  20.0000 Du        
   5657 ****         9.0000  27.2500  20.2500 Du        
   5658 ****         9.0000  27.5000  18.0000 Du        
   5659 ****         9.0000  27.5000  18.2500 Du        
   5660 ****         9.0000  27.5000  18.5000 Du        
   5661 ****         9.0000  27.5000  18.7500 Du        
   5662 ****         9.0000  27.5000  19.0000 Du        
   5663 ****         9.0000  27.5000  19.2500 Du        
   5664 ****         9.0000  27.5000  19.5000 Du        
   5665 ****         9.0000  27.5000  19.7500 Du        
   5666 ****         9.0000  27.5000  20.0000 Du        
   5667 ****         9.0000  27.5000  20.2500 Du        
   5668 ****         9.0000  27.7500  18.0000 Du        
   5669 ****         9.0000  27.7500  18.2500 Du        
   5670 ****         9.0000  27.7500  18.5000 Du        
   5671 ****         9.0000  27.7500  18.7500 Du        
   5672 ****         9.0000  27.7500  19.0000 Du        
   5673 ****         9.0000  27.7500  19.2500 Du        
   5674 ****         9.0000  27.7500  19.5000 Du        
   5675 ****         9.0000  27.7500  19.7500 Du        
   5676 ****         9.0000  27.7500  20.0000 Du        
   5677 ****         9.0000  27.7500  20.2500 Du        
   5678 ****         9.0000  28.0000  18.2500 Du        
   5679 ****         9.0000  28.0000  18.5000 Du        
   5680 ****         9.0000  28.0000  18.7500 Du        
   5681 ****         9.0000  28.0000  19.0000 Du        
   5682 ****         9.0000  28.0000  19.2500 Du        
   5683 ****         9.0000  28.0000  19.5000 Du        
   5684 ****         9.0000  28.0000  19.7500 Du        
   5685 ****         9.0000  28.0000  20.0000 Du        
   5686 ****         9.0000  28.0000  20.2500 Du        
   5687 ****         9.0000  28.2500  18.2500 Du        
   5688 ****         9.0000  28.2500  18.5000 Du        
   5689 ****         9.0000  28.2500  18.7500 Du        
   5690 ****         9.0000  28.2500  19.0000 Du        
   5691 ****         9.0000  28.2500  19.2500 Du        
   5692 ****         9.0000  28.2500  19.5000 Du        
   5693 ****         9.0000  28.2500  19.7500 Du        
   5694 ****         9.0000  28.2500  20.0000 Du        
   5695 ****         9.0000  28.2500  20.2500 Du        
   5696 ****         9.0000  28.5000  18.7500 Du        
   5697 ****         9.0000  28.5000  19.0000 Du        
   5698 ****         9.0000  28.5000  19.2500 Du        
   5699 ****         9.0000  28.5000  19.5000 Du        
   5700 ****         9.0000  28.5000  19.7500 Du        
   5701 ****         9.0000  31.7500  21.7500 Du        
   5702 ****         9.0000  32.0000  21.2500 Du        
   5703 ****         9.0000  32.0000  21.5000 Du        
   5704 ****         9.0000  32.0000  21.7500 Du        
   5705 ****         9.0000  32.0000  22.0000 Du        
   5706 ****         9.0000  32.2500  21.2500 Du        
   5707 ****         9.0000  32.2500  21.5000 Du        
   5708 ****         9.0000  32.2500  21.7500 Du        
   5709 ****         9.0000  32.2500  22.0000 Du        
   5710 ****         9.0000  32.2500  22.2500 Du        
   5711 ****         9.0000  32.5000  21.2500 Du        
   5712 ****         9.0000  32.5000  21.7500 Du        
   5713 ****         9.0000  32.5000  22.0000 Du        
   5714 ****         9.2500  20.2500  31.0000 Du        
   5715 ****         9.2500  20.2500  31.2500 Du        
   5716 ****         9.2500  20.5000  31.2500 Du        
   5717 ****         9.2500  20.7500  31.2500 Du        
   5718 ****         9.2500  25.0000  16.7500 Du        
   5719 ****         9.2500  25.0000  17.0000 Du        
   5720 ****         9.2500  25.0000  17.2500 Du        
   5721 ****         9.2500  25.2500  16.7500 Du        
   5722 ****         9.2500  25.2500  17.0000 Du        
   5723 ****         9.2500  25.2500  17.2500 Du        
   5724 ****         9.2500  25.2500  17.5000 Du        
   5725 ****         9.2500  25.2500  17.7500 Du        
   5726 ****         9.2500  25.2500  18.0000 Du        
   5727 ****         9.2500  25.2500  18.2500 Du        
   5728 ****         9.2500  25.5000  17.0000 Du        
   5729 ****         9.2500  25.5000  17.2500 Du        
   5730 ****         9.2500  25.5000  17.5000 Du        
   5731 ****         9.2500  25.5000  17.7500 Du        
   5732 ****         9.2500  25.5000  18.0000 Du        
   5733 ****         9.2500  25.5000  18.2500 Du        
   5734 ****         9.2500  25.5000  18.5000 Du        
   5735 ****         9.2500  25.5000  18.7500 Du        
   5736 ****         9.2500  25.5000  19.0000 Du        
   5737 ****         9.2500  25.5000  19.2500 Du        
   5738 ****         9.2500  25.7500  17.0000 Du        
   5739 ****         9.2500  25.7500  17.2500 Du        
   5740 ****         9.2500  25.7500  17.5000 Du        
   5741 ****         9.2500  25.7500  17.7500 Du        
   5742 ****         9.2500  25.7500  18.0000 Du        
   5743 ****         9.2500  25.7500  18.2500 Du        
   5744 ****         9.2500  25.7500  18.5000 Du        
   5745 ****         9.2500  25.7500  18.7500 Du        
   5746 ****         9.2500  25.7500  19.0000 Du        
   5747 ****         9.2500  25.7500  19.2500 Du        
   5748 ****         9.2500  25.7500  19.7500 Du        
   5749 ****         9.2500  26.0000  17.2500 Du        
   5750 ****         9.2500  26.0000  17.5000 Du        
   5751 ****         9.2500  26.0000  17.7500 Du        
   5752 ****         9.2500  26.0000  18.0000 Du        
   5753 ****         9.2500  26.0000  18.2500 Du        
   5754 ****         9.2500  26.0000  18.5000 Du        
   5755 ****         9.2500  26.0000  18.7500 Du        
   5756 ****         9.2500  26.0000  19.0000 Du        
   5757 ****         9.2500  26.0000  19.2500 Du        
   5758 ****         9.2500  26.0000  19.5000 Du        
   5759 ****         9.2500  26.0000  19.7500 Du        
   5760 ****         9.2500  26.0000  20.0000 Du        
   5761 ****         9.2500  26.2500  17.2500 Du        
   5762 ****         9.2500  26.2500  17.5000 Du        
   5763 ****         9.2500  26.2500  17.7500 Du        
   5764 ****         9.2500  26.2500  18.0000 Du        
   5765 ****         9.2500  26.2500  18.2500 Du        
   5766 ****         9.2500  26.2500  18.5000 Du        
   5767 ****         9.2500  26.2500  18.7500 Du        
   5768 ****         9.2500  26.2500  19.0000 Du        
   5769 ****         9.2500  26.2500  19.2500 Du        
   5770 ****         9.2500  26.2500  19.5000 Du        
   5771 ****         9.2500  26.2500  19.7500 Du        
   5772 ****         9.2500  26.5000  17.5000 Du        
   5773 ****         9.2500  26.5000  17.7500 Du        
   5774 ****         9.2500  26.5000  18.0000 Du        
   5775 ****         9.2500  26.5000  18.2500 Du        
   5776 ****         9.2500  26.5000  18.5000 Du        
   5777 ****         9.2500  26.5000  18.7500 Du        
   5778 ****         9.2500  26.5000  19.0000 Du        
   5779 ****         9.2500  26.5000  19.2500 Du        
   5780 ****         9.2500  26.5000  19.5000 Du        
   5781 ****         9.2500  26.5000  19.7500 Du        
   5782 ****         9.2500  26.5000  20.0000 Du        
   5783 ****         9.2500  26.7500  17.7500 Du        
   5784 ****         9.2500  26.7500  18.0000 Du        
   5785 ****         9.2500  26.7500  18.2500 Du        
   5786 ****         9.2500  26.7500  18.5000 Du        
   5787 ****         9.2500  26.7500  18.7500 Du        
   5788 ****         9.2500  26.7500  19.0000 Du        
   5789 ****         9.2500  26.7500  19.2500 Du        
   5790 ****         9.2500  26.7500  19.5000 Du        
   5791 ****         9.2500  26.7500  19.7500 Du        
   5792 ****         9.2500  26.7500  20.0000 Du        
   5793 ****         9.2500  27.0000  18.0000 Du        
   5794 ****         9.2500  27.0000  18.2500 Du        
   5795 ****         9.2500  27.0000  18.5000 Du        
   5796 ****         9.2500  27.0000  18.7500 Du        
   5797 ****         9.2500  27.0000  19.0000 Du        
   5798 ****         9.2500  27.0000  19.2500 Du        
   5799 ****         9.2500  27.0000  19.5000 Du        
   5800 ****         9.2500  27.0000  19.7500 Du        
   5801 ****         9.2500  27.0000  20.0000 Du        
   5802 ****         9.2500  27.0000  20.2500 Du        
   5803 ****         9.2500  27.2500  18.0000 Du        
   5804 ****         9.2500  27.2500  18.2500 Du        
   5805 ****         9.2500  27.2500  18.5000 Du        
   5806 ****         9.2500  27.2500  18.7500 Du        
   5807 ****         9.2500  27.2500  19.0000 Du        
   5808 ****         9.2500  27.2500  19.2500 Du        
   5809 ****         9.2500  27.2500  19.5000 Du        
   5810 ****         9.2500  27.2500  19.7500 Du        
   5811 ****         9.2500  27.2500  20.0000 Du        
   5812 ****         9.2500  27.5000  18.2500 Du        
   5813 ****         9.2500  27.5000  18.5000 Du        
   5814 ****         9.2500  27.5000  18.7500 Du        
   5815 ****         9.2500  27.5000  19.0000 Du        
   5816 ****         9.2500  27.5000  19.2500 Du        
   5817 ****         9.2500  27.5000  19.5000 Du        
   5818 ****         9.2500  27.5000  19.7500 Du        
   5819 ****         9.2500  27.5000  20.0000 Du        
   5820 ****         9.2500  27.5000  20.2500 Du        
   5821 ****         9.2500  27.7500  18.7500 Du        
   5822 ****         9.2500  27.7500  19.0000 Du        
   5823 ****         9.2500  27.7500  19.2500 Du        
   5824 ****         9.2500  27.7500  19.5000 Du        
   5825 ****         9.2500  27.7500  19.7500 Du        
   5826 ****         9.2500  27.7500  20.0000 Du        
   5827 ****         9.2500  27.7500  20.2500 Du        
   5828 ****         9.2500  28.0000  18.7500 Du        
   5829 ****         9.2500  28.0000  19.0000 Du        
   5830 ****         9.2500  28.0000  19.2500 Du        
   5831 ****         9.2500  28.0000  19.5000 Du        
   5832 ****         9.2500  28.0000  19.7500 Du        
   5833 ****         9.2500  28.0000  20.0000 Du        
   5834 ****         9.2500  28.0000  20.2500 Du        
   5835 ****         9.2500  28.2500  19.0000 Du        
   5836 ****         9.2500  28.2500  19.2500 Du        
   5837 ****         9.2500  28.2500  19.5000 Du        
   5838 ****         9.2500  28.2500  19.7500 Du        
   5839 ****         9.2500  28.2500  20.0000 Du        
   5840 ****         9.2500  28.2500  20.2500 Du        
   5841 ****         9.2500  28.5000  19.2500 Du        
   5842 ****         9.2500  28.5000  19.5000 Du        
   5843 ****         9.2500  28.5000  19.7500 Du        
   5844 ****         9.2500  28.5000  20.0000 Du        
   5845 ****         9.2500  28.5000  20.2500 Du        
   5846 ****         9.2500  28.7500  19.2500 Du        
   5847 ****         9.2500  31.2500  22.0000 Du        
   5848 ****         9.2500  31.5000  21.2500 Du        
   5849 ****         9.2500  31.5000  21.7500 Du        
   5850 ****         9.2500  31.5000  22.0000 Du        
   5851 ****         9.2500  31.5000  22.2500 Du        
   5852 ****         9.2500  31.7500  20.7500 Du        
   5853 ****         9.2500  31.7500  21.0000 Du        
   5854 ****         9.2500  31.7500  21.2500 Du        
   5855 ****         9.2500  31.7500  21.5000 Du        
   5856 ****         9.2500  31.7500  21.7500 Du        
   5857 ****         9.2500  31.7500  22.0000 Du        
   5858 ****         9.2500  31.7500  22.2500 Du        
   5859 ****         9.2500  32.0000  20.5000 Du        
   5860 ****         9.2500  32.0000  20.7500 Du        
   5861 ****         9.2500  32.0000  21.0000 Du        
   5862 ****         9.2500  32.0000  21.2500 Du        
   5863 ****         9.2500  32.0000  21.5000 Du        
   5864 ****         9.2500  32.0000  21.7500 Du        
   5865 ****         9.2500  32.0000  22.0000 Du        
   5866 ****         9.2500  32.0000  22.2500 Du        
   5867 ****         9.2500  32.0000  22.5000 Du        
   5868 ****         9.2500  32.2500  20.2500 Du        
   5869 ****         9.2500  32.2500  20.5000 Du        
   5870 ****         9.2500  32.2500  20.7500 Du        
   5871 ****         9.2500  32.2500  21.0000 Du        
   5872 ****         9.2500  32.2500  21.2500 Du        
   5873 ****         9.2500  32.2500  21.5000 Du        
   5874 ****         9.2500  32.2500  21.7500 Du        
   5875 ****         9.2500  32.2500  22.0000 Du        
   5876 ****         9.2500  32.2500  22.2500 Du        
   5877 ****         9.2500  32.2500  22.5000 Du        
   5878 ****         9.2500  32.5000  20.5000 Du        
   5879 ****         9.2500  32.5000  20.7500 Du        
   5880 ****         9.2500  32.5000  21.0000 Du        
   5881 ****         9.2500  32.5000  21.2500 Du        
   5882 ****         9.2500  32.5000  21.5000 Du        
   5883 ****         9.2500  32.5000  21.7500 Du        
   5884 ****         9.2500  32.5000  22.0000 Du        
   5885 ****         9.2500  32.5000  22.2500 Du        
   5886 ****         9.2500  32.5000  22.5000 Du        
   5887 ****         9.2500  32.7500  20.7500 Du        
   5888 ****         9.2500  32.7500  21.0000 Du        
   5889 ****         9.2500  32.7500  21.2500 Du        
   5890 ****         9.2500  32.7500  21.5000 Du        
   5891 ****         9.2500  32.7500  21.7500 Du        
   5892 ****         9.2500  32.7500  22.0000 Du        
   5893 ****         9.2500  32.7500  22.2500 Du        
   5894 ****         9.2500  32.7500  22.5000 Du        
   5895 ****         9.5000  25.0000  17.0000 Du        
   5896 ****         9.5000  25.0000  17.2500 Du        
   5897 ****         9.5000  25.0000  17.5000 Du        
   5898 ****         9.5000  25.2500  17.0000 Du        
   5899 ****         9.5000  25.2500  17.2500 Du        
   5900 ****         9.5000  25.2500  17.5000 Du        
   5901 ****         9.5000  25.2500  17.7500 Du        
   5902 ****         9.5000  25.2500  18.0000 Du        
   5903 ****         9.5000  25.2500  18.2500 Du        
   5904 ****         9.5000  25.5000  17.2500 Du        
   5905 ****         9.5000  25.5000  17.5000 Du        
   5906 ****         9.5000  25.5000  17.7500 Du        
   5907 ****         9.5000  25.5000  18.0000 Du        
   5908 ****         9.5000  25.5000  18.2500 Du        
   5909 ****         9.5000  25.5000  18.5000 Du        
   5910 ****         9.5000  25.5000  18.7500 Du        
   5911 ****         9.5000  25.5000  19.0000 Du        
   5912 ****         9.5000  25.7500  17.2500 Du        
   5913 ****         9.5000  25.7500  17.5000 Du        
   5914 ****         9.5000  25.7500  17.7500 Du        
   5915 ****         9.5000  25.7500  18.0000 Du        
   5916 ****         9.5000  25.7500  18.2500 Du        
   5917 ****         9.5000  25.7500  18.5000 Du        
   5918 ****         9.5000  25.7500  18.7500 Du        
   5919 ****         9.5000  25.7500  19.0000 Du        
   5920 ****         9.5000  25.7500  19.2500 Du        
   5921 ****         9.5000  26.0000  17.5000 Du        
   5922 ****         9.5000  26.0000  17.7500 Du        
   5923 ****         9.5000  26.0000  18.0000 Du        
   5924 ****         9.5000  26.0000  18.2500 Du        
   5925 ****         9.5000  26.0000  18.5000 Du        
   5926 ****         9.5000  26.0000  18.7500 Du        
   5927 ****         9.5000  26.0000  19.0000 Du        
   5928 ****         9.5000  26.0000  19.2500 Du        
   5929 ****         9.5000  26.2500  17.7500 Du        
   5930 ****         9.5000  26.2500  18.0000 Du        
   5931 ****         9.5000  26.2500  18.2500 Du        
   5932 ****         9.5000  26.2500  18.5000 Du        
   5933 ****         9.5000  26.2500  18.7500 Du        
   5934 ****         9.5000  26.2500  19.0000 Du        
   5935 ****         9.5000  26.2500  19.2500 Du        
   5936 ****         9.5000  26.5000  18.0000 Du        
   5937 ****         9.5000  26.5000  18.2500 Du        
   5938 ****         9.5000  26.5000  18.5000 Du        
   5939 ****         9.5000  26.5000  18.7500 Du        
   5940 ****         9.5000  26.5000  19.0000 Du        
   5941 ****         9.5000  26.5000  19.2500 Du        
   5942 ****         9.5000  26.7500  18.2500 Du        
   5943 ****         9.5000  26.7500  18.5000 Du        
   5944 ****         9.5000  26.7500  18.7500 Du        
   5945 ****         9.5000  26.7500  19.0000 Du        
   5946 ****         9.5000  26.7500  19.2500 Du        
   5947 ****         9.5000  27.0000  18.7500 Du        
   5948 ****         9.5000  27.0000  19.0000 Du        
   5949 ****         9.5000  27.0000  19.2500 Du        
   5950 ****         9.5000  27.2500  19.0000 Du        
   5951 ****         9.5000  27.2500  19.2500 Du        
   5952 ****         9.5000  27.5000  19.2500 Du        
   5953 ****         9.5000  27.7500  19.2500 Du        
   5954 ****         9.5000  31.0000  21.2500 Du        
   5955 ****         9.5000  31.2500  21.0000 Du        
   5956 ****         9.5000  31.2500  21.2500 Du        
   5957 ****         9.5000  31.2500  21.5000 Du        
   5958 ****         9.5000  31.2500  21.7500 Du        
   5959 ****         9.5000  31.5000  20.0000 Du        
   5960 ****         9.5000  31.5000  20.2500 Du        
   5961 ****         9.5000  31.5000  20.5000 Du        
   5962 ****         9.5000  31.5000  20.7500 Du        
   5963 ****         9.5000  31.5000  21.0000 Du        
   5964 ****         9.5000  31.5000  21.2500 Du        
   5965 ****         9.5000  31.5000  21.5000 Du        
   5966 ****         9.5000  31.5000  21.7500 Du        
   5967 ****         9.5000  31.5000  22.0000 Du        
   5968 ****         9.5000  31.5000  22.2500 Du        
   5969 ****         9.5000  31.7500  20.0000 Du        
   5970 ****         9.5000  31.7500  20.2500 Du        
   5971 ****         9.5000  31.7500  20.5000 Du        
   5972 ****         9.5000  31.7500  20.7500 Du        
   5973 ****         9.5000  31.7500  21.0000 Du        
   5974 ****         9.5000  31.7500  21.2500 Du        
   5975 ****         9.5000  31.7500  21.5000 Du        
   5976 ****         9.5000  31.7500  21.7500 Du        
   5977 ****         9.5000  31.7500  22.0000 Du        
   5978 ****         9.5000  31.7500  22.2500 Du        
   5979 ****         9.5000  31.7500  22.5000 Du        
   5980 ****         9.5000  32.0000  19.7500 Du        
   5981 ****         9.5000  32.0000  20.0000 Du        
   5982 ****         9.5000  32.0000  20.2500 Du        
   5983 ****         9.5000  32.0000  20.5000 Du        
   5984 ****         9.5000  32.0000  20.7500 Du        
   5985 ****         9.5000  32.0000  21.0000 Du        
   5986 ****         9.5000  32.0000  21.2500 Du        
   5987 ****         9.5000  32.0000  21.5000 Du        
   5988 ****         9.5000  32.0000  21.7500 Du        
   5989 ****         9.5000  32.0000  22.0000 Du        
   5990 ****         9.5000  32.0000  22.2500 Du        
   5991 ****         9.5000  32.0000  22.5000 Du        
   5992 ****         9.5000  32.0000  22.7500 Du        
   5993 ****         9.5000  32.2500  19.7500 Du        
   5994 ****         9.5000  32.2500  20.0000 Du        
   5995 ****         9.5000  32.2500  20.2500 Du        
   5996 ****         9.5000  32.2500  20.5000 Du        
   5997 ****         9.5000  32.2500  20.7500 Du        
   5998 ****         9.5000  32.2500  21.0000 Du        
   5999 ****         9.5000  32.2500  21.2500 Du        
   6000 ****         9.5000  32.2500  21.5000 Du        
   6001 ****         9.5000  32.2500  21.7500 Du        
   6002 ****         9.5000  32.2500  22.0000 Du        
   6003 ****         9.5000  32.2500  22.2500 Du        
   6004 ****         9.5000  32.2500  22.5000 Du        
   6005 ****         9.5000  32.2500  22.7500 Du        
   6006 ****         9.5000  32.5000  19.7500 Du        
   6007 ****         9.5000  32.5000  20.0000 Du        
   6008 ****         9.5000  32.5000  20.2500 Du        
   6009 ****         9.5000  32.5000  20.5000 Du        
   6010 ****         9.5000  32.5000  20.7500 Du        
   6011 ****         9.5000  32.5000  21.0000 Du        
   6012 ****         9.5000  32.5000  21.2500 Du        
   6013 ****         9.5000  32.5000  21.5000 Du        
   6014 ****         9.5000  32.5000  21.7500 Du        
   6015 ****         9.5000  32.5000  22.0000 Du        
   6016 ****         9.5000  32.5000  22.2500 Du        
   6017 ****         9.5000  32.5000  22.5000 Du        
   6018 ****         9.5000  32.5000  22.7500 Du        
   6019 ****         9.5000  32.7500  20.0000 Du        
   6020 ****         9.5000  32.7500  20.2500 Du        
   6021 ****         9.5000  32.7500  20.5000 Du        
   6022 ****         9.5000  32.7500  20.7500 Du        
   6023 ****         9.5000  32.7500  21.0000 Du        
   6024 ****         9.5000  32.7500  21.2500 Du        
   6025 ****         9.5000  32.7500  21.5000 Du        
   6026 ****         9.5000  32.7500  21.7500 Du        
   6027 ****         9.5000  32.7500  22.0000 Du        
   6028 ****         9.5000  32.7500  22.2500 Du        
   6029 ****         9.5000  32.7500  22.5000 Du        
   6030 ****         9.5000  33.0000  20.7500 Du        
   6031 ****         9.5000  33.0000  21.0000 Du        
   6032 ****         9.5000  33.0000  21.2500 Du        
   6033 ****         9.5000  33.0000  21.5000 Du        
   6034 ****         9.5000  33.0000  21.7500 Du        
   6035 ****         9.5000  33.0000  22.0000 Du        
   6036 ****         9.7500  25.0000  17.0000 Du        
   6037 ****         9.7500  25.0000  17.2500 Du        
   6038 ****         9.7500  25.0000  17.5000 Du        
   6039 ****         9.7500  25.0000  17.7500 Du        
   6040 ****         9.7500  25.2500  17.0000 Du        
   6041 ****         9.7500  25.2500  17.2500 Du        
   6042 ****         9.7500  25.2500  17.5000 Du        
   6043 ****         9.7500  25.2500  17.7500 Du        
   6044 ****         9.7500  25.2500  18.0000 Du        
   6045 ****         9.7500  25.2500  18.2500 Du        
   6046 ****         9.7500  25.5000  17.2500 Du        
   6047 ****         9.7500  25.5000  17.5000 Du        
   6048 ****         9.7500  25.5000  17.7500 Du        
   6049 ****         9.7500  25.5000  18.0000 Du        
   6050 ****         9.7500  25.5000  18.2500 Du        
   6051 ****         9.7500  25.5000  18.5000 Du        
   6052 ****         9.7500  25.5000  18.7500 Du        
   6053 ****         9.7500  25.5000  19.0000 Du        
   6054 ****         9.7500  25.7500  17.5000 Du        
   6055 ****         9.7500  25.7500  17.7500 Du        
   6056 ****         9.7500  25.7500  18.0000 Du        
   6057 ****         9.7500  25.7500  18.2500 Du        
   6058 ****         9.7500  25.7500  18.5000 Du        
   6059 ****         9.7500  25.7500  18.7500 Du        
   6060 ****         9.7500  25.7500  19.0000 Du        
   6061 ****         9.7500  25.7500  19.2500 Du        
   6062 ****         9.7500  26.0000  17.7500 Du        
   6063 ****         9.7500  26.0000  18.0000 Du        
   6064 ****         9.7500  26.0000  18.2500 Du        
   6065 ****         9.7500  26.0000  18.5000 Du        
   6066 ****         9.7500  26.0000  18.7500 Du        
   6067 ****         9.7500  26.0000  19.0000 Du        
   6068 ****         9.7500  26.0000  19.2500 Du        
   6069 ****         9.7500  26.2500  18.0000 Du        
   6070 ****         9.7500  26.2500  18.2500 Du        
   6071 ****         9.7500  26.2500  18.5000 Du        
   6072 ****         9.7500  26.2500  18.7500 Du        
   6073 ****         9.7500  26.2500  19.0000 Du        
   6074 ****         9.7500  26.2500  19.2500 Du        
   6075 ****         9.7500  26.5000  18.2500 Du        
   6076 ****         9.7500  26.5000  18.5000 Du        
   6077 ****         9.7500  26.5000  18.7500 Du        
   6078 ****         9.7500  26.5000  19.0000 Du        
   6079 ****         9.7500  26.5000  19.2500 Du        
   6080 ****         9.7500  26.7500  18.7500 Du        
   6081 ****         9.7500  26.7500  19.0000 Du        
   6082 ****         9.7500  26.7500  19.2500 Du        
   6083 ****         9.7500  27.0000  19.0000 Du        
   6084 ****         9.7500  27.0000  19.2500 Du        
   6085 ****         9.7500  30.5000  21.2500 Du        
   6086 ****         9.7500  30.7500  20.2500 Du        
   6087 ****         9.7500  30.7500  20.7500 Du        
   6088 ****         9.7500  30.7500  21.0000 Du        
   6089 ****         9.7500  30.7500  21.2500 Du        
   6090 ****         9.7500  31.0000  20.0000 Du        
   6091 ****         9.7500  31.0000  20.2500 Du        
   6092 ****         9.7500  31.0000  20.5000 Du        
   6093 ****         9.7500  31.0000  20.7500 Du        
   6094 ****         9.7500  31.0000  21.0000 Du        
   6095 ****         9.7500  31.0000  21.2500 Du        
   6096 ****         9.7500  31.0000  21.5000 Du        
   6097 ****         9.7500  31.0000  21.7500 Du        
   6098 ****         9.7500  31.2500  20.0000 Du        
   6099 ****         9.7500  31.2500  20.2500 Du        
   6100 ****         9.7500  31.2500  20.5000 Du        
   6101 ****         9.7500  31.2500  20.7500 Du        
   6102 ****         9.7500  31.2500  21.0000 Du        
   6103 ****         9.7500  31.2500  21.2500 Du        
   6104 ****         9.7500  31.2500  21.5000 Du        
   6105 ****         9.7500  31.2500  21.7500 Du        
   6106 ****         9.7500  31.2500  22.0000 Du        
   6107 ****         9.7500  31.5000  20.0000 Du        
   6108 ****         9.7500  31.5000  20.2500 Du        
   6109 ****         9.7500  31.5000  20.5000 Du        
   6110 ****         9.7500  31.5000  20.7500 Du        
   6111 ****         9.7500  31.5000  21.0000 Du        
   6112 ****         9.7500  31.5000  21.2500 Du        
   6113 ****         9.7500  31.5000  21.5000 Du        
   6114 ****         9.7500  31.5000  21.7500 Du        
   6115 ****         9.7500  31.5000  22.0000 Du        
   6116 ****         9.7500  31.5000  22.2500 Du        
   6117 ****         9.7500  31.7500  19.7500 Du        
   6118 ****         9.7500  31.7500  20.0000 Du        
   6119 ****         9.7500  31.7500  20.2500 Du        
   6120 ****         9.7500  31.7500  20.5000 Du        
   6121 ****         9.7500  31.7500  20.7500 Du        
   6122 ****         9.7500  31.7500  21.0000 Du        
   6123 ****         9.7500  31.7500  21.2500 Du        
   6124 ****         9.7500  31.7500  21.5000 Du        
   6125 ****         9.7500  31.7500  21.7500 Du        
   6126 ****         9.7500  31.7500  22.0000 Du        
   6127 ****         9.7500  31.7500  22.2500 Du        
   6128 ****         9.7500  31.7500  22.5000 Du        
   6129 ****         9.7500  31.7500  22.7500 Du        
   6130 ****         9.7500  31.7500  23.0000 Du        
   6131 ****         9.7500  32.0000  19.7500 Du        
   6132 ****         9.7500  32.0000  20.0000 Du        
   6133 ****         9.7500  32.0000  20.2500 Du        
   6134 ****         9.7500  32.0000  20.5000 Du        
   6135 ****         9.7500  32.0000  20.7500 Du        
   6136 ****         9.7500  32.0000  21.0000 Du        
   6137 ****         9.7500  32.0000  21.2500 Du        
   6138 ****         9.7500  32.0000  21.5000 Du        
   6139 ****         9.7500  32.0000  21.7500 Du        
   6140 ****         9.7500  32.0000  22.0000 Du        
   6141 ****         9.7500  32.0000  22.2500 Du        
   6142 ****         9.7500  32.0000  22.5000 Du        
   6143 ****         9.7500  32.0000  22.7500 Du        
   6144 ****         9.7500  32.0000  23.0000 Du        
   6145 ****         9.7500  32.2500  19.7500 Du        
   6146 ****         9.7500  32.2500  20.0000 Du        
   6147 ****         9.7500  32.2500  20.2500 Du        
   6148 ****         9.7500  32.2500  20.5000 Du        
   6149 ****         9.7500  32.2500  20.7500 Du        
   6150 ****         9.7500  32.2500  21.0000 Du        
   6151 ****         9.7500  32.2500  21.2500 Du        
   6152 ****         9.7500  32.2500  21.5000 Du        
   6153 ****         9.7500  32.2500  21.7500 Du        
   6154 ****         9.7500  32.2500  22.0000 Du        
   6155 ****         9.7500  32.2500  22.2500 Du        
   6156 ****         9.7500  32.2500  22.5000 Du        
   6157 ****         9.7500  32.2500  22.7500 Du        
   6158 ****         9.7500  32.2500  23.0000 Du        
   6159 ****         9.7500  32.5000  19.5000 Du        
   6160 ****         9.7500  32.5000  19.7500 Du        
   6161 ****         9.7500  32.5000  20.0000 Du        
   6162 ****         9.7500  32.5000  20.2500 Du        
   6163 ****         9.7500  32.5000  20.5000 Du        
   6164 ****         9.7500  32.5000  20.7500 Du        
   6165 ****         9.7500  32.5000  21.0000 Du        
   6166 ****         9.7500  32.5000  21.2500 Du        
   6167 ****         9.7500  32.5000  21.5000 Du        
   6168 ****         9.7500  32.5000  21.7500 Du        
   6169 ****         9.7500  32.5000  22.0000 Du        
   6170 ****         9.7500  32.5000  22.2500 Du        
   6171 ****         9.7500  32.5000  22.5000 Du        
   6172 ****         9.7500  32.5000  22.7500 Du        
   6173 ****         9.7500  32.7500  19.7500 Du        
   6174 ****         9.7500  32.7500  20.0000 Du        
   6175 ****         9.7500  32.7500  20.2500 Du        
   6176 ****         9.7500  32.7500  20.5000 Du        
   6177 ****         9.7500  32.7500  20.7500 Du        
   6178 ****         9.7500  32.7500  21.0000 Du        
   6179 ****         9.7500  32.7500  21.2500 Du        
   6180 ****         9.7500  32.7500  21.5000 Du        
   6181 ****         9.7500  32.7500  21.7500 Du        
   6182 ****         9.7500  32.7500  22.0000 Du        
   6183 ****         9.7500  32.7500  22.2500 Du        
   6184 ****         9.7500  33.0000  20.2500 Du        
   6185 ****         9.7500  33.0000  20.5000 Du        
   6186 ****         9.7500  33.0000  20.7500 Du        
   6187 ****         9.7500  33.0000  21.0000 Du        
   6188 ****         9.7500  33.0000  21.2500 Du        
   6189 ****         9.7500  33.0000  21.5000 Du        
   6190 ****         9.7500  33.0000  21.7500 Du        
   6191 ****         9.7500  33.0000  22.0000 Du        
   6192 ****         9.7500  33.2500  21.0000 Du        
   6193 ****         9.7500  33.2500  21.2500 Du        
   6194 ****         9.7500  33.2500  21.5000 Du        
   6195 ****        10.0000  25.0000  17.2500 Du        
   6196 ****        10.0000  25.0000  17.5000 Du        
   6197 ****        10.0000  25.0000  17.7500 Du        
   6198 ****        10.0000  25.2500  17.2500 Du        
   6199 ****        10.0000  25.2500  17.5000 Du        
   6200 ****        10.0000  25.2500  17.7500 Du        
   6201 ****        10.0000  25.2500  18.0000 Du        
   6202 ****        10.0000  25.2500  18.2500 Du        
   6203 ****        10.0000  25.5000  17.5000 Du        
   6204 ****        10.0000  25.5000  17.7500 Du        
   6205 ****        10.0000  25.5000  18.0000 Du        
   6206 ****        10.0000  25.5000  18.2500 Du        
   6207 ****        10.0000  25.5000  18.5000 Du        
   6208 ****        10.0000  25.5000  18.7500 Du        
   6209 ****        10.0000  25.5000  19.0000 Du        
   6210 ****        10.0000  25.7500  17.7500 Du        
   6211 ****        10.0000  25.7500  18.0000 Du        
   6212 ****        10.0000  25.7500  18.2500 Du        
   6213 ****        10.0000  25.7500  18.5000 Du        
   6214 ****        10.0000  25.7500  18.7500 Du        
   6215 ****        10.0000  25.7500  19.0000 Du        
   6216 ****        10.0000  25.7500  19.2500 Du        
   6217 ****        10.0000  26.0000  18.0000 Du        
   6218 ****        10.0000  26.0000  18.2500 Du        
   6219 ****        10.0000  26.0000  18.5000 Du        
   6220 ****        10.0000  26.0000  18.7500 Du        
   6221 ****        10.0000  26.0000  19.0000 Du        
   6222 ****        10.0000  26.0000  19.2500 Du        
   6223 ****        10.0000  26.2500  18.2500 Du        
   6224 ****        10.0000  26.2500  18.7500 Du        
   6225 ****        10.0000  26.2500  19.0000 Du        
   6226 ****        10.0000  26.2500  19.2500 Du        
   6227 ****        10.0000  26.5000  19.0000 Du        
   6228 ****        10.0000  26.5000  19.2500 Du        
   6229 ****        10.0000  26.7500  19.2500 Du        
   6230 ****        10.0000  30.5000  20.7500 Du        
   6231 ****        10.0000  30.5000  21.0000 Du        
   6232 ****        10.0000  30.5000  21.2500 Du        
   6233 ****        10.0000  30.7500  20.2500 Du        
   6234 ****        10.0000  30.7500  20.7500 Du        
   6235 ****        10.0000  30.7500  21.0000 Du        
   6236 ****        10.0000  30.7500  21.2500 Du        
   6237 ****        10.0000  31.0000  20.2500 Du        
   6238 ****        10.0000  31.0000  20.5000 Du        
   6239 ****        10.0000  31.0000  20.7500 Du        
   6240 ****        10.0000  31.0000  21.0000 Du        
   6241 ****        10.0000  31.0000  21.2500 Du        
   6242 ****        10.0000  31.0000  21.5000 Du        
   6243 ****        10.0000  31.0000  21.7500 Du        
   6244 ****        10.0000  31.2500  20.0000 Du        
   6245 ****        10.0000  31.2500  20.2500 Du        
   6246 ****        10.0000  31.2500  20.5000 Du        
   6247 ****        10.0000  31.2500  20.7500 Du        
   6248 ****        10.0000  31.2500  21.0000 Du        
   6249 ****        10.0000  31.2500  21.2500 Du        
   6250 ****        10.0000  31.2500  21.5000 Du        
   6251 ****        10.0000  31.2500  21.7500 Du        
   6252 ****        10.0000  31.5000  20.0000 Du        
   6253 ****        10.0000  31.5000  20.2500 Du        
   6254 ****        10.0000  31.5000  20.5000 Du        
   6255 ****        10.0000  31.5000  20.7500 Du        
   6256 ****        10.0000  31.5000  21.0000 Du        
   6257 ****        10.0000  31.5000  21.2500 Du        
   6258 ****        10.0000  31.5000  21.5000 Du        
   6259 ****        10.0000  31.5000  21.7500 Du        
   6260 ****        10.0000  31.5000  22.0000 Du        
   6261 ****        10.0000  31.5000  22.2500 Du        
   6262 ****        10.0000  31.7500  20.0000 Du        
   6263 ****        10.0000  31.7500  20.2500 Du        
   6264 ****        10.0000  31.7500  20.5000 Du        
   6265 ****        10.0000  31.7500  20.7500 Du        
   6266 ****        10.0000  31.7500  21.0000 Du        
   6267 ****        10.0000  31.7500  21.2500 Du        
   6268 ****        10.0000  31.7500  21.5000 Du        
   6269 ****        10.0000  31.7500  21.7500 Du        
   6270 ****        10.0000  31.7500  22.0000 Du        
   6271 ****        10.0000  31.7500  22.2500 Du        
   6272 ****        10.0000  31.7500  22.5000 Du        
   6273 ****        10.0000  31.7500  22.7500 Du        
   6274 ****        10.0000  31.7500  23.0000 Du        
   6275 ****        10.0000  32.0000  19.7500 Du        
   6276 ****        10.0000  32.0000  20.0000 Du        
   6277 ****        10.0000  32.0000  20.2500 Du        
   6278 ****        10.0000  32.0000  20.5000 Du        
   6279 ****        10.0000  32.0000  20.7500 Du        
   6280 ****        10.0000  32.0000  21.0000 Du        
   6281 ****        10.0000  32.0000  21.2500 Du        
   6282 ****        10.0000  32.0000  21.5000 Du        
   6283 ****        10.0000  32.0000  21.7500 Du        
   6284 ****        10.0000  32.0000  22.0000 Du        
   6285 ****        10.0000  32.0000  22.2500 Du        
   6286 ****        10.0000  32.0000  22.5000 Du        
   6287 ****        10.0000  32.0000  22.7500 Du        
   6288 ****        10.0000  32.0000  23.0000 Du        
   6289 ****        10.0000  32.2500  19.7500 Du        
   6290 ****        10.0000  32.2500  20.0000 Du        
   6291 ****        10.0000  32.2500  20.2500 Du        
   6292 ****        10.0000  32.2500  20.5000 Du        
   6293 ****        10.0000  32.2500  20.7500 Du        
   6294 ****        10.0000  32.2500  21.0000 Du        
   6295 ****        10.0000  32.2500  21.2500 Du        
   6296 ****        10.0000  32.2500  21.5000 Du        
   6297 ****        10.0000  32.2500  21.7500 Du        
   6298 ****        10.0000  32.2500  22.0000 Du        
   6299 ****        10.0000  32.2500  22.2500 Du        
   6300 ****        10.0000  32.2500  22.5000 Du        
   6301 ****        10.0000  32.2500  22.7500 Du        
   6302 ****        10.0000  32.2500  23.0000 Du        
   6303 ****        10.0000  32.5000  19.7500 Du        
   6304 ****        10.0000  32.5000  20.0000 Du        
   6305 ****        10.0000  32.5000  20.2500 Du        
   6306 ****        10.0000  32.5000  20.5000 Du        
   6307 ****        10.0000  32.5000  20.7500 Du        
   6308 ****        10.0000  32.5000  21.0000 Du        
   6309 ****        10.0000  32.5000  21.2500 Du        
   6310 ****        10.0000  32.5000  21.5000 Du        
   6311 ****        10.0000  32.5000  21.7500 Du        
   6312 ****        10.0000  32.5000  22.0000 Du        
   6313 ****        10.0000  32.5000  22.2500 Du        
   6314 ****        10.0000  32.5000  22.5000 Du        
   6315 ****        10.0000  32.7500  19.7500 Du        
   6316 ****        10.0000  32.7500  20.0000 Du        
   6317 ****        10.0000  32.7500  20.2500 Du        
   6318 ****        10.0000  32.7500  20.5000 Du        
   6319 ****        10.0000  32.7500  20.7500 Du        
   6320 ****        10.0000  32.7500  21.0000 Du        
   6321 ****        10.0000  32.7500  21.2500 Du        
   6322 ****        10.0000  32.7500  21.5000 Du        
   6323 ****        10.0000  32.7500  21.7500 Du        
   6324 ****        10.0000  32.7500  22.0000 Du        
   6325 ****        10.0000  32.7500  22.2500 Du        
   6326 ****        10.0000  33.0000  19.7500 Du        
   6327 ****        10.0000  33.0000  20.0000 Du        
   6328 ****        10.0000  33.0000  20.2500 Du        
   6329 ****        10.0000  33.0000  20.5000 Du        
   6330 ****        10.0000  33.0000  20.7500 Du        
   6331 ****        10.0000  33.0000  21.0000 Du        
   6332 ****        10.0000  33.0000  21.2500 Du        
   6333 ****        10.0000  33.0000  21.5000 Du        
   6334 ****        10.0000  33.0000  21.7500 Du        
   6335 ****        10.0000  33.0000  22.0000 Du        
   6336 ****        10.0000  33.2500  20.5000 Du        
   6337 ****        10.0000  33.2500  20.7500 Du        
   6338 ****        10.0000  33.2500  21.0000 Du        
   6339 ****        10.0000  33.2500  21.2500 Du        
   6340 ****        10.0000  33.2500  21.5000 Du        
   6341 ****        10.0000  33.5000  21.2500 Du        
   6342 ****        10.2500  25.0000  17.2500 Du        
   6343 ****        10.2500  25.0000  17.5000 Du        
   6344 ****        10.2500  25.0000  17.7500 Du        
   6345 ****        10.2500  25.2500  17.7500 Du        
   6346 ****        10.2500  25.2500  18.0000 Du        
   6347 ****        10.2500  25.2500  18.2500 Du        
   6348 ****        10.2500  25.5000  17.7500 Du        
   6349 ****        10.2500  25.5000  18.0000 Du        
   6350 ****        10.2500  25.5000  18.2500 Du        
   6351 ****        10.2500  25.7500  18.0000 Du        
   6352 ****        10.2500  25.7500  18.2500 Du        
   6353 ****        10.2500  25.7500  18.5000 Du        
   6354 ****        10.2500  25.7500  18.7500 Du        
   6355 ****        10.2500  30.7500  21.0000 Du        
   6356 ****        10.2500  30.7500  21.2500 Du        
   6357 ****        10.2500  31.0000  20.2500 Du        
   6358 ****        10.2500  31.0000  20.5000 Du        
   6359 ****        10.2500  31.0000  20.7500 Du        
   6360 ****        10.2500  31.0000  21.0000 Du        
   6361 ****        10.2500  31.0000  21.2500 Du        
   6362 ****        10.2500  31.2500  20.2500 Du        
   6363 ****        10.2500  31.2500  20.5000 Du        
   6364 ****        10.2500  31.2500  20.7500 Du        
   6365 ****        10.2500  31.2500  21.0000 Du        
   6366 ****        10.2500  31.2500  21.2500 Du        
   6367 ****        10.2500  31.5000  20.2500 Du        
   6368 ****        10.2500  31.5000  20.5000 Du        
   6369 ****        10.2500  31.5000  20.7500 Du        
   6370 ****        10.2500  31.5000  21.0000 Du        
   6371 ****        10.2500  31.5000  21.2500 Du        
   6372 ****        10.2500  31.5000  21.5000 Du        
   6373 ****        10.2500  31.5000  21.7500 Du        
   6374 ****        10.2500  31.7500  20.0000 Du        
   6375 ****        10.2500  31.7500  20.2500 Du        
   6376 ****        10.2500  31.7500  20.5000 Du        
   6377 ****        10.2500  31.7500  20.7500 Du        
   6378 ****        10.2500  31.7500  21.0000 Du        
   6379 ****        10.2500  31.7500  21.2500 Du        
   6380 ****        10.2500  31.7500  21.5000 Du        
   6381 ****        10.2500  31.7500  21.7500 Du        
   6382 ****        10.2500  31.7500  22.0000 Du        
   6383 ****        10.2500  31.7500  22.2500 Du        
   6384 ****        10.2500  32.0000  20.0000 Du        
   6385 ****        10.2500  32.0000  20.2500 Du        
   6386 ****        10.2500  32.0000  20.5000 Du        
   6387 ****        10.2500  32.0000  20.7500 Du        
   6388 ****        10.2500  32.0000  21.0000 Du        
   6389 ****        10.2500  32.0000  21.2500 Du        
   6390 ****        10.2500  32.0000  21.5000 Du        
   6391 ****        10.2500  32.0000  21.7500 Du        
   6392 ****        10.2500  32.0000  22.0000 Du        
   6393 ****        10.2500  32.0000  22.2500 Du        
   6394 ****        10.2500  32.0000  22.5000 Du        
   6395 ****        10.2500  32.0000  22.7500 Du        
   6396 ****        10.2500  32.2500  19.7500 Du        
   6397 ****        10.2500  32.2500  20.0000 Du        
   6398 ****        10.2500  32.2500  20.2500 Du        
   6399 ****        10.2500  32.2500  20.5000 Du        
   6400 ****        10.2500  32.2500  20.7500 Du        
   6401 ****        10.2500  32.2500  21.0000 Du        
   6402 ****        10.2500  32.2500  21.2500 Du        
   6403 ****        10.2500  32.2500  21.5000 Du        
   6404 ****        10.2500  32.2500  21.7500 Du        
   6405 ****        10.2500  32.2500  22.0000 Du        
   6406 ****        10.2500  32.2500  22.2500 Du        
   6407 ****        10.2500  32.5000  19.7500 Du        
   6408 ****        10.2500  32.5000  20.0000 Du        
   6409 ****        10.2500  32.5000  20.2500 Du        
   6410 ****        10.2500  32.5000  20.5000 Du        
   6411 ****        10.2500  32.5000  20.7500 Du        
   6412 ****        10.2500  32.5000  21.0000 Du        
   6413 ****        10.2500  32.5000  21.2500 Du        
   6414 ****        10.2500  32.5000  21.5000 Du        
   6415 ****        10.2500  32.5000  21.7500 Du        
   6416 ****        10.2500  32.5000  22.0000 Du        
   6417 ****        10.2500  32.5000  22.2500 Du        
   6418 ****        10.2500  32.7500  19.7500 Du        
   6419 ****        10.2500  32.7500  20.0000 Du        
   6420 ****        10.2500  32.7500  20.2500 Du        
   6421 ****        10.2500  32.7500  20.5000 Du        
   6422 ****        10.2500  32.7500  20.7500 Du        
   6423 ****        10.2500  32.7500  21.0000 Du        
   6424 ****        10.2500  32.7500  21.2500 Du        
   6425 ****        10.2500  32.7500  21.5000 Du        
   6426 ****        10.2500  32.7500  21.7500 Du        
   6427 ****        10.2500  32.7500  22.0000 Du        
   6428 ****        10.2500  33.0000  19.7500 Du        
   6429 ****        10.2500  33.0000  20.0000 Du        
   6430 ****        10.2500  33.0000  20.2500 Du        
   6431 ****        10.2500  33.0000  20.5000 Du        
   6432 ****        10.2500  33.0000  20.7500 Du        
   6433 ****        10.2500  33.0000  21.0000 Du        
   6434 ****        10.2500  33.0000  21.2500 Du        
   6435 ****        10.2500  33.0000  21.5000 Du        
   6436 ****        10.2500  33.0000  21.7500 Du        
   6437 ****        10.2500  33.0000  26.0000 Du        
   6438 ****        10.2500  33.2500  20.0000 Du        
   6439 ****        10.2500  33.2500  20.2500 Du        
   6440 ****        10.2500  33.2500  20.5000 Du        
   6441 ****        10.2500  33.2500  20.7500 Du        
   6442 ****        10.2500  33.2500  21.0000 Du        
   6443 ****        10.2500  33.2500  21.2500 Du        
   6444 ****        10.2500  33.2500  21.5000 Du        
   6445 ****        10.2500  33.5000  21.0000 Du        
   6446 ****        10.2500  33.5000  21.2500 Du        
   6447 ****        10.5000  31.2500  21.0000 Du        
   6448 ****        10.5000  31.2500  21.2500 Du        
   6449 ****        10.5000  31.5000  20.2500 Du        
   6450 ****        10.5000  31.5000  20.5000 Du        
   6451 ****        10.5000  31.5000  20.7500 Du        
   6452 ****        10.5000  31.5000  21.0000 Du        
   6453 ****        10.5000  31.5000  21.2500 Du        
   6454 ****        10.5000  31.5000  21.5000 Du        
   6455 ****        10.5000  31.5000  21.7500 Du        
   6456 ****        10.5000  31.7500  20.2500 Du        
   6457 ****        10.5000  31.7500  20.5000 Du        
   6458 ****        10.5000  31.7500  20.7500 Du        
   6459 ****        10.5000  31.7500  21.0000 Du        
   6460 ****        10.5000  31.7500  21.2500 Du        
   6461 ****        10.5000  31.7500  21.5000 Du        
   6462 ****        10.5000  31.7500  21.7500 Du        
   6463 ****        10.5000  31.7500  22.0000 Du        
   6464 ****        10.5000  32.0000  20.0000 Du        
   6465 ****        10.5000  32.0000  20.2500 Du        
   6466 ****        10.5000  32.0000  20.5000 Du        
   6467 ****        10.5000  32.0000  20.7500 Du        
   6468 ****        10.5000  32.0000  21.0000 Du        
   6469 ****        10.5000  32.0000  21.2500 Du        
   6470 ****        10.5000  32.0000  21.5000 Du        
   6471 ****        10.5000  32.0000  21.7500 Du        
   6472 ****        10.5000  32.0000  22.0000 Du        
   6473 ****        10.5000  32.2500  20.0000 Du        
   6474 ****        10.5000  32.2500  20.2500 Du        
   6475 ****        10.5000  32.2500  20.5000 Du        
   6476 ****        10.5000  32.2500  20.7500 Du        
   6477 ****        10.5000  32.2500  21.0000 Du        
   6478 ****        10.5000  32.2500  21.2500 Du        
   6479 ****        10.5000  32.2500  21.5000 Du        
   6480 ****        10.5000  32.2500  21.7500 Du        
   6481 ****        10.5000  32.2500  22.0000 Du        
   6482 ****        10.5000  32.5000  19.7500 Du        
   6483 ****        10.5000  32.5000  20.0000 Du        
   6484 ****        10.5000  32.5000  20.2500 Du        
   6485 ****        10.5000  32.5000  20.5000 Du        
   6486 ****        10.5000  32.5000  20.7500 Du        
   6487 ****        10.5000  32.5000  21.0000 Du        
   6488 ****        10.5000  32.5000  21.2500 Du        
   6489 ****        10.5000  32.5000  21.5000 Du        
   6490 ****        10.5000  32.5000  21.7500 Du        
   6491 ****        10.5000  32.5000  22.0000 Du        
   6492 ****        10.5000  32.5000  25.7500 Du        
   6493 ****        10.5000  32.7500  19.7500 Du        
   6494 ****        10.5000  32.7500  20.0000 Du        
   6495 ****        10.5000  32.7500  20.2500 Du        
   6496 ****        10.5000  32.7500  20.5000 Du        
   6497 ****        10.5000  32.7500  20.7500 Du        
   6498 ****        10.5000  32.7500  21.0000 Du        
   6499 ****        10.5000  32.7500  21.2500 Du        
   6500 ****        10.5000  32.7500  21.5000 Du        
   6501 ****        10.5000  32.7500  21.7500 Du        
   6502 ****        10.5000  32.7500  25.7500 Du        
   6503 ****        10.5000  33.0000  19.7500 Du        
   6504 ****        10.5000  33.0000  20.0000 Du        
   6505 ****        10.5000  33.0000  20.2500 Du        
   6506 ****        10.5000  33.0000  20.5000 Du        
   6507 ****        10.5000  33.0000  20.7500 Du        
   6508 ****        10.5000  33.0000  21.0000 Du        
   6509 ****        10.5000  33.0000  21.2500 Du        
   6510 ****        10.5000  33.0000  21.5000 Du        
   6511 ****        10.5000  33.0000  26.0000 Du        
   6512 ****        10.5000  33.2500  20.2500 Du        
   6513 ****        10.5000  33.2500  20.5000 Du        
   6514 ****        10.5000  33.2500  20.7500 Du        
   6515 ****        10.5000  33.2500  21.0000 Du        
   6516 ****        10.5000  33.2500  21.2500 Du        
   6517 ****        10.5000  33.2500  26.5000 Du        
   6518 ****        10.5000  33.5000  21.0000 Du        
   6519 ****        10.5000  33.5000  21.2500 Du        
   6520 ****        10.7500  31.5000  20.7500 Du        
   6521 ****        10.7500  31.5000  21.0000 Du        
   6522 ****        10.7500  31.5000  21.2500 Du        
   6523 ****        10.7500  31.7500  20.2500 Du        
   6524 ****        10.7500  31.7500  20.5000 Du        
   6525 ****        10.7500  31.7500  20.7500 Du        
   6526 ****        10.7500  31.7500  21.0000 Du        
   6527 ****        10.7500  31.7500  21.2500 Du        
   6528 ****        10.7500  31.7500  21.5000 Du        
   6529 ****        10.7500  31.7500  21.7500 Du        
   6530 ****        10.7500  31.7500  22.0000 Du        
   6531 ****        10.7500  32.0000  20.0000 Du        
   6532 ****        10.7500  32.0000  20.2500 Du        
   6533 ****        10.7500  32.0000  20.5000 Du        
   6534 ****        10.7500  32.0000  20.7500 Du        
   6535 ****        10.7500  32.0000  21.0000 Du        
   6536 ****        10.7500  32.0000  21.2500 Du        
   6537 ****        10.7500  32.0000  21.5000 Du        
   6538 ****        10.7500  32.0000  21.7500 Du        
   6539 ****        10.7500  32.0000  22.0000 Du        
   6540 ****        10.7500  32.2500  20.0000 Du        
   6541 ****        10.7500  32.2500  20.2500 Du        
   6542 ****        10.7500  32.2500  20.5000 Du        
   6543 ****        10.7500  32.2500  20.7500 Du        
   6544 ****        10.7500  32.2500  21.0000 Du        
   6545 ****        10.7500  32.2500  21.2500 Du        
   6546 ****        10.7500  32.2500  21.5000 Du        
   6547 ****        10.7500  32.2500  21.7500 Du        
   6548 ****        10.7500  32.2500  22.0000 Du        
   6549 ****        10.7500  32.5000  20.0000 Du        
   6550 ****        10.7500  32.5000  20.2500 Du        
   6551 ****        10.7500  32.5000  20.5000 Du        
   6552 ****        10.7500  32.5000  20.7500 Du        
   6553 ****        10.7500  32.5000  21.0000 Du        
   6554 ****        10.7500  32.5000  21.2500 Du        
   6555 ****        10.7500  32.5000  21.5000 Du        
   6556 ****        10.7500  32.5000  21.7500 Du        
   6557 ****        10.7500  32.5000  22.0000 Du        
   6558 ****        10.7500  32.5000  25.5000 Du        
   6559 ****        10.7500  32.5000  25.7500 Du        
   6560 ****        10.7500  32.5000  26.0000 Du        
   6561 ****        10.7500  32.7500  19.7500 Du        
   6562 ****        10.7500  32.7500  20.0000 Du        
   6563 ****        10.7500  32.7500  20.2500 Du        
   6564 ****        10.7500  32.7500  20.5000 Du        
   6565 ****        10.7500  32.7500  20.7500 Du        
   6566 ****        10.7500  32.7500  21.0000 Du        
   6567 ****        10.7500  32.7500  21.2500 Du        
   6568 ****        10.7500  32.7500  21.5000 Du        
   6569 ****        10.7500  32.7500  21.7500 Du        
   6570 ****        10.7500  32.7500  25.7500 Du        
   6571 ****        10.7500  32.7500  26.0000 Du        
   6572 ****        10.7500  33.0000  19.7500 Du        
   6573 ****        10.7500  33.0000  20.0000 Du        
   6574 ****        10.7500  33.0000  20.2500 Du        
   6575 ****        10.7500  33.0000  20.5000 Du        
   6576 ****        10.7500  33.0000  20.7500 Du        
   6577 ****        10.7500  33.0000  21.0000 Du        
   6578 ****        10.7500  33.0000  21.2500 Du        
   6579 ****        10.7500  33.0000  21.5000 Du        
   6580 ****        10.7500  33.0000  26.0000 Du        
   6581 ****        10.7500  33.0000  26.2500 Du        
   6582 ****        10.7500  33.0000  26.5000 Du        
   6583 ****        10.7500  33.2500  20.2500 Du        
   6584 ****        10.7500  33.2500  20.5000 Du        
   6585 ****        10.7500  33.2500  20.7500 Du        
   6586 ****        10.7500  33.2500  21.0000 Du        
   6587 ****        10.7500  33.2500  21.2500 Du        
   6588 ****        10.7500  33.2500  26.5000 Du        
   6589 ****        10.7500  33.5000  21.0000 Du        
   6590 ****        10.7500  33.5000  21.2500 Du        
   6591 ****        10.7500  33.5000  26.7500 Du        
   6592 ****        11.0000  31.7500  20.7500 Du        
   6593 ****        11.0000  31.7500  21.0000 Du        
   6594 ****        11.0000  31.7500  21.2500 Du        
   6595 ****        11.0000  31.7500  21.5000 Du        
   6596 ****        11.0000  31.7500  21.7500 Du        
   6597 ****        11.0000  32.0000  20.2500 Du        
   6598 ****        11.0000  32.0000  20.5000 Du        
   6599 ****        11.0000  32.0000  20.7500 Du        
   6600 ****        11.0000  32.0000  21.0000 Du        
   6601 ****        11.0000  32.0000  21.2500 Du        
   6602 ****        11.0000  32.0000  21.5000 Du        
   6603 ****        11.0000  32.0000  21.7500 Du        
   6604 ****        11.0000  32.0000  22.0000 Du        
   6605 ****        11.0000  32.2500  20.0000 Du        
   6606 ****        11.0000  32.2500  20.2500 Du        
   6607 ****        11.0000  32.2500  20.5000 Du        
   6608 ****        11.0000  32.2500  20.7500 Du        
   6609 ****        11.0000  32.2500  21.0000 Du        
   6610 ****        11.0000  32.2500  21.2500 Du        
   6611 ****        11.0000  32.2500  21.5000 Du        
   6612 ****        11.0000  32.2500  21.7500 Du        
   6613 ****        11.0000  32.2500  25.5000 Du        
   6614 ****        11.0000  32.2500  25.7500 Du        
   6615 ****        11.0000  32.5000  20.0000 Du        
   6616 ****        11.0000  32.5000  20.2500 Du        
   6617 ****        11.0000  32.5000  20.5000 Du        
   6618 ****        11.0000  32.5000  20.7500 Du        
   6619 ****        11.0000  32.5000  21.0000 Du        
   6620 ****        11.0000  32.5000  21.2500 Du        
   6621 ****        11.0000  32.5000  21.5000 Du        
   6622 ****        11.0000  32.5000  21.7500 Du        
   6623 ****        11.0000  32.5000  25.5000 Du        
   6624 ****        11.0000  32.5000  25.7500 Du        
   6625 ****        11.0000  32.5000  26.0000 Du        
   6626 ****        11.0000  32.7500  19.7500 Du        
   6627 ****        11.0000  32.7500  20.0000 Du        
   6628 ****        11.0000  32.7500  20.2500 Du        
   6629 ****        11.0000  32.7500  20.5000 Du        
   6630 ****        11.0000  32.7500  20.7500 Du        
   6631 ****        11.0000  32.7500  21.0000 Du        
   6632 ****        11.0000  32.7500  21.2500 Du        
   6633 ****        11.0000  32.7500  21.5000 Du        
   6634 ****        11.0000  32.7500  21.7500 Du        
   6635 ****        11.0000  32.7500  25.7500 Du        
   6636 ****        11.0000  32.7500  26.0000 Du        
   6637 ****        11.0000  32.7500  26.2500 Du        
   6638 ****        11.0000  33.0000  20.0000 Du        
   6639 ****        11.0000  33.0000  20.2500 Du        
   6640 ****        11.0000  33.0000  20.5000 Du        
   6641 ****        11.0000  33.0000  20.7500 Du        
   6642 ****        11.0000  33.0000  21.0000 Du        
   6643 ****        11.0000  33.0000  21.2500 Du        
   6644 ****        11.0000  33.0000  21.5000 Du        
   6645 ****        11.0000  33.0000  26.0000 Du        
   6646 ****        11.0000  33.0000  26.2500 Du        
   6647 ****        11.0000  33.0000  26.5000 Du        
   6648 ****        11.0000  33.2500  20.2500 Du        
   6649 ****        11.0000  33.2500  20.5000 Du        
   6650 ****        11.0000  33.2500  20.7500 Du        
   6651 ****        11.0000  33.2500  21.0000 Du        
   6652 ****        11.0000  33.2500  21.2500 Du        
   6653 ****        11.0000  33.2500  26.5000 Du        
   6654 ****        11.0000  33.2500  26.7500 Du        
   6655 ****        11.0000  33.5000  21.0000 Du        
   6656 ****        11.2500  31.7500  21.2500 Du        
   6657 ****        11.2500  32.0000  20.7500 Du        
   6658 ****        11.2500  32.0000  21.0000 Du        
   6659 ****        11.2500  32.0000  21.2500 Du        
   6660 ****        11.2500  32.0000  21.5000 Du        
   6661 ****        11.2500  32.0000  21.7500 Du        
   6662 ****        11.2500  32.0000  25.5000 Du        
   6663 ****        11.2500  32.0000  25.7500 Du        
   6664 ****        11.2500  32.2500  20.2500 Du        
   6665 ****        11.2500  32.2500  20.5000 Du        
   6666 ****        11.2500  32.2500  20.7500 Du        
   6667 ****        11.2500  32.2500  21.0000 Du        
   6668 ****        11.2500  32.2500  21.2500 Du        
   6669 ****        11.2500  32.2500  21.5000 Du        
   6670 ****        11.2500  32.2500  21.7500 Du        
   6671 ****        11.2500  32.2500  25.5000 Du        
   6672 ****        11.2500  32.2500  25.7500 Du        
   6673 ****        11.2500  32.2500  26.0000 Du        
   6674 ****        11.2500  32.5000  20.0000 Du        
   6675 ****        11.2500  32.5000  20.2500 Du        
   6676 ****        11.2500  32.5000  20.5000 Du        
   6677 ****        11.2500  32.5000  20.7500 Du        
   6678 ****        11.2500  32.5000  21.0000 Du        
   6679 ****        11.2500  32.5000  21.2500 Du        
   6680 ****        11.2500  32.5000  21.5000 Du        
   6681 ****        11.2500  32.5000  21.7500 Du        
   6682 ****        11.2500  32.5000  25.5000 Du        
   6683 ****        11.2500  32.5000  25.7500 Du        
   6684 ****        11.2500  32.5000  26.0000 Du        
   6685 ****        11.2500  32.5000  26.2500 Du        
   6686 ****        11.2500  32.7500  20.0000 Du        
   6687 ****        11.2500  32.7500  20.2500 Du        
   6688 ****        11.2500  32.7500  20.5000 Du        
   6689 ****        11.2500  32.7500  20.7500 Du        
   6690 ****        11.2500  32.7500  21.0000 Du        
   6691 ****        11.2500  32.7500  21.2500 Du        
   6692 ****        11.2500  32.7500  21.5000 Du        
   6693 ****        11.2500  32.7500  25.7500 Du        
   6694 ****        11.2500  32.7500  26.0000 Du        
   6695 ****        11.2500  32.7500  26.2500 Du        
   6696 ****        11.2500  32.7500  26.5000 Du        
   6697 ****        11.2500  33.0000  20.0000 Du        
   6698 ****        11.2500  33.0000  20.2500 Du        
   6699 ****        11.2500  33.0000  20.5000 Du        
   6700 ****        11.2500  33.0000  20.7500 Du        
   6701 ****        11.2500  33.0000  21.0000 Du        
   6702 ****        11.2500  33.0000  21.2500 Du        
   6703 ****        11.2500  33.0000  21.5000 Du        
   6704 ****        11.2500  33.0000  26.0000 Du        
   6705 ****        11.2500  33.0000  26.2500 Du        
   6706 ****        11.2500  33.0000  26.5000 Du        
   6707 ****        11.2500  33.0000  26.7500 Du        
   6708 ****        11.2500  33.2500  20.2500 Du        
   6709 ****        11.2500  33.2500  20.5000 Du        
   6710 ****        11.2500  33.2500  20.7500 Du        
   6711 ****        11.2500  33.2500  21.0000 Du        
   6712 ****        11.2500  33.2500  21.2500 Du        
   6713 ****        11.2500  33.2500  26.5000 Du        
   6714 ****        11.2500  33.2500  26.7500 Du        
   6715 ****        11.2500  33.2500  27.0000 Du        
   6716 ****        11.5000  32.0000  21.2500 Du        
   6717 ****        11.5000  32.2500  20.7500 Du        
   6718 ****        11.5000  32.2500  21.0000 Du        
   6719 ****        11.5000  32.2500  21.2500 Du        
   6720 ****        11.5000  32.2500  21.5000 Du        
   6721 ****        11.5000  32.2500  25.7500 Du        
   6722 ****        11.5000  32.2500  26.0000 Du        
   6723 ****        11.5000  32.5000  20.0000 Du        
   6724 ****        11.5000  32.5000  20.2500 Du        
   6725 ****        11.5000  32.5000  20.5000 Du        
   6726 ****        11.5000  32.5000  20.7500 Du        
   6727 ****        11.5000  32.5000  21.0000 Du        
   6728 ****        11.5000  32.5000  21.2500 Du        
   6729 ****        11.5000  32.5000  21.5000 Du        
   6730 ****        11.5000  32.5000  25.7500 Du        
   6731 ****        11.5000  32.5000  26.0000 Du        
   6732 ****        11.5000  32.5000  26.2500 Du        
   6733 ****        11.5000  32.5000  26.5000 Du        
   6734 ****        11.5000  32.7500  20.0000 Du        
   6735 ****        11.5000  32.7500  20.2500 Du        
   6736 ****        11.5000  32.7500  20.5000 Du        
   6737 ****        11.5000  32.7500  20.7500 Du        
   6738 ****        11.5000  32.7500  21.0000 Du        
   6739 ****        11.5000  32.7500  21.2500 Du        
   6740 ****        11.5000  32.7500  21.5000 Du        
   6741 ****        11.5000  32.7500  25.7500 Du        
   6742 ****        11.5000  32.7500  26.0000 Du        
   6743 ****        11.5000  32.7500  26.2500 Du        
   6744 ****        11.5000  32.7500  26.5000 Du        
   6745 ****        11.5000  32.7500  26.7500 Du        
   6746 ****        11.5000  33.0000  20.0000 Du        
   6747 ****        11.5000  33.0000  20.2500 Du        
   6748 ****        11.5000  33.0000  20.5000 Du        
   6749 ****        11.5000  33.0000  20.7500 Du        
   6750 ****        11.5000  33.0000  21.0000 Du        
   6751 ****        11.5000  33.0000  21.2500 Du        
   6752 ****        11.5000  33.0000  26.2500 Du        
   6753 ****        11.5000  33.0000  26.5000 Du        
   6754 ****        11.5000  33.0000  26.7500 Du        
   6755 ****        11.5000  33.0000  27.0000 Du        
   6756 ****        11.5000  33.2500  20.2500 Du        
   6757 ****        11.5000  33.2500  20.5000 Du        
   6758 ****        11.5000  33.2500  20.7500 Du        
   6759 ****        11.5000  33.2500  21.0000 Du        
   6760 ****        11.5000  33.2500  21.2500 Du        
   6761 ****        11.5000  33.2500  26.5000 Du        
   6762 ****        11.5000  33.2500  26.7500 Du        
   6763 ****        11.5000  33.2500  27.0000 Du        
   6764 ****        11.7500  32.0000  25.7500 Du        
   6765 ****        11.7500  32.0000  26.0000 Du        
   6766 ****        11.7500  32.0000  26.2500 Du        
   6767 ****        11.7500  32.2500  21.0000 Du        
   6768 ****        11.7500  32.2500  21.2500 Du        
   6769 ****        11.7500  32.2500  21.5000 Du        
   6770 ****        11.7500  32.2500  25.7500 Du        
   6771 ****        11.7500  32.2500  26.0000 Du        
   6772 ****        11.7500  32.2500  26.2500 Du        
   6773 ****        11.7500  32.2500  26.5000 Du        
   6774 ****        11.7500  32.5000  20.2500 Du        
   6775 ****        11.7500  32.5000  20.5000 Du        
   6776 ****        11.7500  32.5000  20.7500 Du        
   6777 ****        11.7500  32.5000  21.0000 Du        
   6778 ****        11.7500  32.5000  21.2500 Du        
   6779 ****        11.7500  32.5000  25.7500 Du        
   6780 ****        11.7500  32.5000  26.0000 Du        
   6781 ****        11.7500  32.5000  26.2500 Du        
   6782 ****        11.7500  32.5000  26.5000 Du        
   6783 ****        11.7500  32.5000  26.7500 Du        
   6784 ****        11.7500  32.7500  20.0000 Du        
   6785 ****        11.7500  32.7500  20.2500 Du        
   6786 ****        11.7500  32.7500  20.5000 Du        
   6787 ****        11.7500  32.7500  20.7500 Du        
   6788 ****        11.7500  32.7500  21.0000 Du        
   6789 ****        11.7500  32.7500  21.2500 Du        
   6790 ****        11.7500  32.7500  21.5000 Du        
   6791 ****        11.7500  32.7500  25.7500 Du        
   6792 ****        11.7500  32.7500  26.0000 Du        
   6793 ****        11.7500  32.7500  26.2500 Du        
   6794 ****        11.7500  32.7500  26.5000 Du        
   6795 ****        11.7500  32.7500  26.7500 Du        
   6796 ****        11.7500  32.7500  27.0000 Du        
   6797 ****        11.7500  33.0000  20.0000 Du        
   6798 ****        11.7500  33.0000  20.2500 Du        
   6799 ****        11.7500  33.0000  20.5000 Du        
   6800 ****        11.7500  33.0000  20.7500 Du        
   6801 ****        11.7500  33.0000  21.0000 Du        
   6802 ****        11.7500  33.0000  21.2500 Du        
   6803 ****        11.7500  33.0000  21.5000 Du        
   6804 ****        11.7500  33.0000  26.2500 Du        
   6805 ****        11.7500  33.0000  26.5000 Du        
   6806 ****        11.7500  33.0000  26.7500 Du        
   6807 ****        11.7500  33.0000  27.0000 Du        
   6808 ****        11.7500  33.0000  27.2500 Du        
   6809 ****        11.7500  33.2500  20.2500 Du        
   6810 ****        11.7500  33.2500  20.5000 Du        
   6811 ****        11.7500  33.2500  20.7500 Du        
   6812 ****        11.7500  33.2500  21.0000 Du        
   6813 ****        11.7500  33.2500  21.2500 Du        
   6814 ****        11.7500  33.2500  26.7500 Du        
   6815 ****        11.7500  33.2500  27.0000 Du        
   6816 ****        11.7500  33.2500  27.2500 Du        
   6817 ****        12.0000  31.7500  26.0000 Du        
   6818 ****        12.0000  31.7500  26.2500 Du        
   6819 ****        12.0000  31.7500  26.5000 Du        
   6820 ****        12.0000  32.0000  25.7500 Du        
   6821 ****        12.0000  32.0000  26.0000 Du        
   6822 ****        12.0000  32.0000  26.2500 Du        
   6823 ****        12.0000  32.0000  26.5000 Du        
   6824 ****        12.0000  32.0000  26.7500 Du        
   6825 ****        12.0000  32.2500  25.7500 Du        
   6826 ****        12.0000  32.2500  26.0000 Du        
   6827 ****        12.0000  32.2500  26.2500 Du        
   6828 ****        12.0000  32.2500  26.5000 Du        
   6829 ****        12.0000  32.2500  26.7500 Du        
   6830 ****        12.0000  32.2500  27.0000 Du        
   6831 ****        12.0000  32.5000  20.2500 Du        
   6832 ****        12.0000  32.5000  20.5000 Du        
   6833 ****        12.0000  32.5000  20.7500 Du        
   6834 ****        12.0000  32.5000  21.0000 Du        
   6835 ****        12.0000  32.5000  21.2500 Du        
   6836 ****        12.0000  32.5000  25.7500 Du        
   6837 ****        12.0000  32.5000  26.0000 Du        
   6838 ****        12.0000  32.5000  26.2500 Du        
   6839 ****        12.0000  32.5000  26.5000 Du        
   6840 ****        12.0000  32.5000  26.7500 Du        
   6841 ****        12.0000  32.5000  27.0000 Du        
   6842 ****        12.0000  32.5000  27.2500 Du        
   6843 ****        12.0000  32.7500  20.0000 Du        
   6844 ****        12.0000  32.7500  20.2500 Du        
   6845 ****        12.0000  32.7500  20.5000 Du        
   6846 ****        12.0000  32.7500  20.7500 Du        
   6847 ****        12.0000  32.7500  21.0000 Du        
   6848 ****        12.0000  32.7500  21.2500 Du        
   6849 ****        12.0000  32.7500  21.5000 Du        
   6850 ****        12.0000  32.7500  25.7500 Du        
   6851 ****        12.0000  32.7500  26.0000 Du        
   6852 ****        12.0000  32.7500  26.2500 Du        
   6853 ****        12.0000  32.7500  26.5000 Du        
   6854 ****        12.0000  32.7500  26.7500 Du        
   6855 ****        12.0000  32.7500  27.0000 Du        
   6856 ****        12.0000  32.7500  27.2500 Du        
   6857 ****        12.0000  32.7500  27.5000 Du        
   6858 ****        12.0000  33.0000  19.7500 Du        
   6859 ****        12.0000  33.0000  20.0000 Du        
   6860 ****        12.0000  33.0000  20.2500 Du        
   6861 ****        12.0000  33.0000  20.5000 Du        
   6862 ****        12.0000  33.0000  20.7500 Du        
   6863 ****        12.0000  33.0000  21.0000 Du        
   6864 ****        12.0000  33.0000  21.2500 Du        
   6865 ****        12.0000  33.0000  21.5000 Du        
   6866 ****        12.0000  33.0000  26.2500 Du        
   6867 ****        12.0000  33.0000  26.5000 Du        
   6868 ****        12.0000  33.0000  26.7500 Du        
   6869 ****        12.0000  33.0000  27.0000 Du        
   6870 ****        12.0000  33.0000  27.2500 Du        
   6871 ****        12.0000  33.0000  27.5000 Du        
   6872 ****        12.0000  33.2500  20.0000 Du        
   6873 ****        12.0000  33.2500  20.2500 Du        
   6874 ****        12.0000  33.2500  20.5000 Du        
   6875 ****        12.0000  33.2500  20.7500 Du        
   6876 ****        12.0000  33.2500  21.0000 Du        
   6877 ****        12.0000  33.2500  21.2500 Du        
   6878 ****        12.0000  33.2500  26.7500 Du        
   6879 ****        12.0000  33.2500  27.0000 Du        
   6880 ****        12.0000  33.2500  27.2500 Du        
   6881 ****        12.0000  33.5000  21.0000 Du        
   6882 ****        12.2500  31.5000  26.0000 Du        
   6883 ****        12.2500  31.5000  26.2500 Du        
   6884 ****        12.2500  31.5000  26.5000 Du        
   6885 ****        12.2500  31.5000  26.7500 Du        
   6886 ****        12.2500  31.7500  25.7500 Du        
   6887 ****        12.2500  31.7500  26.0000 Du        
   6888 ****        12.2500  31.7500  26.2500 Du        
   6889 ****        12.2500  31.7500  26.5000 Du        
   6890 ****        12.2500  31.7500  26.7500 Du        
   6891 ****        12.2500  31.7500  27.0000 Du        
   6892 ****        12.2500  32.0000  25.7500 Du        
   6893 ****        12.2500  32.0000  26.0000 Du        
   6894 ****        12.2500  32.0000  26.2500 Du        
   6895 ****        12.2500  32.0000  26.5000 Du        
   6896 ****        12.2500  32.0000  26.7500 Du        
   6897 ****        12.2500  32.0000  27.0000 Du        
   6898 ****        12.2500  32.2500  25.7500 Du        
   6899 ****        12.2500  32.2500  26.0000 Du        
   6900 ****        12.2500  32.2500  26.2500 Du        
   6901 ****        12.2500  32.2500  26.5000 Du        
   6902 ****        12.2500  32.2500  26.7500 Du        
   6903 ****        12.2500  32.2500  27.0000 Du        
   6904 ****        12.2500  32.2500  27.2500 Du        
   6905 ****        12.2500  32.5000  21.0000 Du        
   6906 ****        12.2500  32.5000  21.2500 Du        
   6907 ****        12.2500  32.5000  25.5000 Du        
   6908 ****        12.2500  32.5000  25.7500 Du        
   6909 ****        12.2500  32.5000  26.0000 Du        
   6910 ****        12.2500  32.5000  26.2500 Du        
   6911 ****        12.2500  32.5000  26.5000 Du        
   6912 ****        12.2500  32.5000  26.7500 Du        
   6913 ****        12.2500  32.5000  27.0000 Du        
   6914 ****        12.2500  32.5000  27.2500 Du        
   6915 ****        12.2500  32.5000  27.5000 Du        
   6916 ****        12.2500  32.7500  20.0000 Du        
   6917 ****        12.2500  32.7500  20.2500 Du        
   6918 ****        12.2500  32.7500  20.5000 Du        
   6919 ****        12.2500  32.7500  20.7500 Du        
   6920 ****        12.2500  32.7500  21.0000 Du        
   6921 ****        12.2500  32.7500  21.2500 Du        
   6922 ****        12.2500  32.7500  25.7500 Du        
   6923 ****        12.2500  32.7500  26.0000 Du        
   6924 ****        12.2500  32.7500  26.2500 Du        
   6925 ****        12.2500  32.7500  26.5000 Du        
   6926 ****        12.2500  32.7500  26.7500 Du        
   6927 ****        12.2500  32.7500  27.0000 Du        
   6928 ****        12.2500  32.7500  27.2500 Du        
   6929 ****        12.2500  32.7500  27.5000 Du        
   6930 ****        12.2500  32.7500  27.7500 Du        
   6931 ****        12.2500  33.0000  19.7500 Du        
   6932 ****        12.2500  33.0000  20.0000 Du        
   6933 ****        12.2500  33.0000  20.2500 Du        
   6934 ****        12.2500  33.0000  20.5000 Du        
   6935 ****        12.2500  33.0000  20.7500 Du        
   6936 ****        12.2500  33.0000  21.0000 Du        
   6937 ****        12.2500  33.0000  21.2500 Du        
   6938 ****        12.2500  33.0000  21.5000 Du        
   6939 ****        12.2500  33.0000  26.2500 Du        
   6940 ****        12.2500  33.0000  26.5000 Du        
   6941 ****        12.2500  33.0000  26.7500 Du        
   6942 ****        12.2500  33.0000  27.0000 Du        
   6943 ****        12.2500  33.0000  27.2500 Du        
   6944 ****        12.2500  33.0000  27.5000 Du        
   6945 ****        12.2500  33.0000  27.7500 Du        
   6946 ****        12.2500  33.2500  20.0000 Du        
   6947 ****        12.2500  33.2500  20.2500 Du        
   6948 ****        12.2500  33.2500  20.5000 Du        
   6949 ****        12.2500  33.2500  20.7500 Du        
   6950 ****        12.2500  33.2500  21.0000 Du        
   6951 ****        12.2500  33.2500  21.2500 Du        
   6952 ****        12.2500  33.2500  26.7500 Du        
   6953 ****        12.2500  33.2500  27.0000 Du        
   6954 ****        12.2500  33.2500  27.2500 Du        
   6955 ****        12.2500  33.2500  27.5000 Du        
   6956 ****        12.2500  33.5000  20.7500 Du        
   6957 ****        12.2500  33.5000  21.0000 Du        
   6958 ****        12.5000  25.2500  31.5000 Du        
   6959 ****        12.5000  25.5000  31.2500 Du        
   6960 ****        12.5000  25.5000  31.5000 Du        
   6961 ****        12.5000  25.5000  31.7500 Du        
   6962 ****        12.5000  25.7500  31.5000 Du        
   6963 ****        12.5000  25.7500  31.7500 Du        
   6964 ****        12.5000  31.2500  26.5000 Du        
   6965 ****        12.5000  31.2500  26.7500 Du        
   6966 ****        12.5000  31.5000  26.2500 Du        
   6967 ****        12.5000  31.5000  26.5000 Du        
   6968 ****        12.5000  31.5000  26.7500 Du        
   6969 ****        12.5000  31.7500  26.0000 Du        
   6970 ****        12.5000  31.7500  26.2500 Du        
   6971 ****        12.5000  31.7500  26.5000 Du        
   6972 ****        12.5000  31.7500  26.7500 Du        
   6973 ****        12.5000  31.7500  27.0000 Du        
   6974 ****        12.5000  32.0000  26.0000 Du        
   6975 ****        12.5000  32.0000  26.2500 Du        
   6976 ****        12.5000  32.0000  26.5000 Du        
   6977 ****        12.5000  32.0000  26.7500 Du        
   6978 ****        12.5000  32.0000  27.0000 Du        
   6979 ****        12.5000  32.0000  27.2500 Du        
   6980 ****        12.5000  32.2500  25.7500 Du        
   6981 ****        12.5000  32.2500  26.0000 Du        
   6982 ****        12.5000  32.2500  26.2500 Du        
   6983 ****        12.5000  32.2500  26.5000 Du        
   6984 ****        12.5000  32.2500  26.7500 Du        
   6985 ****        12.5000  32.2500  27.0000 Du        
   6986 ****        12.5000  32.2500  27.2500 Du        
   6987 ****        12.5000  32.2500  27.5000 Du        
   6988 ****        12.5000  32.5000  25.7500 Du        
   6989 ****        12.5000  32.5000  26.0000 Du        
   6990 ****        12.5000  32.5000  26.2500 Du        
   6991 ****        12.5000  32.5000  26.5000 Du        
   6992 ****        12.5000  32.5000  26.7500 Du        
   6993 ****        12.5000  32.5000  27.0000 Du        
   6994 ****        12.5000  32.5000  27.2500 Du        
   6995 ****        12.5000  32.5000  27.5000 Du        
   6996 ****        12.5000  32.7500  20.7500 Du        
   6997 ****        12.5000  32.7500  21.0000 Du        
   6998 ****        12.5000  32.7500  21.2500 Du        
   6999 ****        12.5000  32.7500  25.7500 Du        
   7000 ****        12.5000  32.7500  26.0000 Du        
   7001 ****        12.5000  32.7500  26.2500 Du        
   7002 ****        12.5000  32.7500  26.5000 Du        
   7003 ****        12.5000  32.7500  26.7500 Du        
   7004 ****        12.5000  32.7500  27.0000 Du        
   7005 ****        12.5000  32.7500  27.2500 Du        
   7006 ****        12.5000  32.7500  27.5000 Du        
   7007 ****        12.5000  32.7500  27.7500 Du        
   7008 ****        12.5000  33.0000  20.0000 Du        
   7009 ****        12.5000  33.0000  20.2500 Du        
   7010 ****        12.5000  33.0000  20.5000 Du        
   7011 ****        12.5000  33.0000  20.7500 Du        
   7012 ****        12.5000  33.0000  21.0000 Du        
   7013 ****        12.5000  33.0000  21.2500 Du        
   7014 ****        12.5000  33.0000  26.2500 Du        
   7015 ****        12.5000  33.0000  26.5000 Du        
   7016 ****        12.5000  33.0000  26.7500 Du        
   7017 ****        12.5000  33.0000  27.0000 Du        
   7018 ****        12.5000  33.0000  27.2500 Du        
   7019 ****        12.5000  33.0000  27.5000 Du        
   7020 ****        12.5000  33.0000  27.7500 Du        
   7021 ****        12.5000  33.2500  20.0000 Du        
   7022 ****        12.5000  33.2500  20.2500 Du        
   7023 ****        12.5000  33.2500  20.5000 Du        
   7024 ****        12.5000  33.2500  20.7500 Du        
   7025 ****        12.5000  33.2500  21.0000 Du        
   7026 ****        12.5000  33.2500  21.2500 Du        
   7027 ****        12.5000  33.2500  26.7500 Du        
   7028 ****        12.5000  33.2500  27.0000 Du        
   7029 ****        12.5000  33.2500  27.2500 Du        
   7030 ****        12.5000  33.2500  27.5000 Du        
   7031 ****        12.5000  33.5000  20.5000 Du        
   7032 ****        12.5000  33.5000  20.7500 Du        
   7033 ****        12.5000  33.5000  21.0000 Du        
   7034 ****        12.5000  33.5000  21.2500 Du        
   7035 ****        12.7500  25.0000  31.2500 Du        
   7036 ****        12.7500  25.0000  31.5000 Du        
   7037 ****        12.7500  25.2500  31.0000 Du        
   7038 ****        12.7500  25.2500  31.2500 Du        
   7039 ****        12.7500  25.2500  31.5000 Du        
   7040 ****        12.7500  25.2500  31.7500 Du        
   7041 ****        12.7500  25.5000  31.0000 Du        
   7042 ****        12.7500  25.5000  31.2500 Du        
   7043 ****        12.7500  25.5000  31.5000 Du        
   7044 ****        12.7500  25.5000  31.7500 Du        
   7045 ****        12.7500  25.5000  32.0000 Du        
   7046 ****        12.7500  25.7500  30.7500 Du        
   7047 ****        12.7500  25.7500  31.0000 Du        
   7048 ****        12.7500  25.7500  31.2500 Du        
   7049 ****        12.7500  25.7500  31.5000 Du        
   7050 ****        12.7500  25.7500  31.7500 Du        
   7051 ****        12.7500  25.7500  32.0000 Du        
   7052 ****        12.7500  25.7500  32.2500 Du        
   7053 ****        12.7500  26.0000  31.0000 Du        
   7054 ****        12.7500  26.0000  31.2500 Du        
   7055 ****        12.7500  26.0000  31.5000 Du        
   7056 ****        12.7500  26.0000  31.7500 Du        
   7057 ****        12.7500  26.0000  32.0000 Du        
   7058 ****        12.7500  26.0000  32.2500 Du        
   7059 ****        12.7500  31.0000  26.7500 Du        
   7060 ****        12.7500  31.2500  26.5000 Du        
   7061 ****        12.7500  31.2500  26.7500 Du        
   7062 ****        12.7500  31.5000  26.2500 Du        
   7063 ****        12.7500  31.5000  26.5000 Du        
   7064 ****        12.7500  31.5000  26.7500 Du        
   7065 ****        12.7500  31.5000  27.0000 Du        
   7066 ****        12.7500  31.7500  26.0000 Du        
   7067 ****        12.7500  31.7500  26.2500 Du        
   7068 ****        12.7500  31.7500  26.5000 Du        
   7069 ****        12.7500  31.7500  26.7500 Du        
   7070 ****        12.7500  31.7500  27.0000 Du        
   7071 ****        12.7500  32.0000  26.0000 Du        
   7072 ****        12.7500  32.0000  26.2500 Du        
   7073 ****        12.7500  32.0000  26.5000 Du        
   7074 ****        12.7500  32.0000  26.7500 Du        
   7075 ****        12.7500  32.0000  27.0000 Du        
   7076 ****        12.7500  32.0000  27.2500 Du        
   7077 ****        12.7500  32.2500  25.7500 Du        
   7078 ****        12.7500  32.2500  26.0000 Du        
   7079 ****        12.7500  32.2500  26.2500 Du        
   7080 ****        12.7500  32.2500  26.5000 Du        
   7081 ****        12.7500  32.2500  26.7500 Du        
   7082 ****        12.7500  32.2500  27.0000 Du        
   7083 ****        12.7500  32.2500  27.2500 Du        
   7084 ****        12.7500  32.2500  27.5000 Du        
   7085 ****        12.7500  32.5000  25.7500 Du        
   7086 ****        12.7500  32.5000  26.0000 Du        
   7087 ****        12.7500  32.5000  26.2500 Du        
   7088 ****        12.7500  32.5000  26.5000 Du        
   7089 ****        12.7500  32.5000  26.7500 Du        
   7090 ****        12.7500  32.5000  27.0000 Du        
   7091 ****        12.7500  32.5000  27.2500 Du        
   7092 ****        12.7500  32.5000  27.5000 Du        
   7093 ****        12.7500  32.7500  21.0000 Du        
   7094 ****        12.7500  32.7500  21.2500 Du        
   7095 ****        12.7500  32.7500  25.7500 Du        
   7096 ****        12.7500  32.7500  26.0000 Du        
   7097 ****        12.7500  32.7500  26.2500 Du        
   7098 ****        12.7500  32.7500  26.5000 Du        
   7099 ****        12.7500  32.7500  26.7500 Du        
   7100 ****        12.7500  32.7500  27.0000 Du        
   7101 ****        12.7500  32.7500  27.2500 Du        
   7102 ****        12.7500  32.7500  27.5000 Du        
   7103 ****        12.7500  32.7500  27.7500 Du        
   7104 ****        12.7500  33.0000  20.0000 Du        
   7105 ****        12.7500  33.0000  20.2500 Du        
   7106 ****        12.7500  33.0000  20.5000 Du        
   7107 ****        12.7500  33.0000  20.7500 Du        
   7108 ****        12.7500  33.0000  21.0000 Du        
   7109 ****        12.7500  33.0000  21.2500 Du        
   7110 ****        12.7500  33.0000  26.2500 Du        
   7111 ****        12.7500  33.0000  26.5000 Du        
   7112 ****        12.7500  33.0000  26.7500 Du        
   7113 ****        12.7500  33.0000  27.0000 Du        
   7114 ****        12.7500  33.0000  27.2500 Du        
   7115 ****        12.7500  33.0000  27.5000 Du        
   7116 ****        12.7500  33.0000  27.7500 Du        
   7117 ****        12.7500  33.2500  19.7500 Du        
   7118 ****        12.7500  33.2500  20.0000 Du        
   7119 ****        12.7500  33.2500  20.2500 Du        
   7120 ****        12.7500  33.2500  20.5000 Du        
   7121 ****        12.7500  33.2500  20.7500 Du        
   7122 ****        12.7500  33.2500  21.0000 Du        
   7123 ****        12.7500  33.2500  21.2500 Du        
   7124 ****        12.7500  33.2500  26.7500 Du        
   7125 ****        12.7500  33.2500  27.0000 Du        
   7126 ****        12.7500  33.2500  27.2500 Du        
   7127 ****        12.7500  33.2500  27.5000 Du        
   7128 ****        12.7500  33.2500  27.7500 Du        
   7129 ****        12.7500  33.5000  20.0000 Du        
   7130 ****        12.7500  33.5000  20.2500 Du        
   7131 ****        12.7500  33.5000  20.5000 Du        
   7132 ****        12.7500  33.5000  20.7500 Du        
   7133 ****        12.7500  33.5000  21.0000 Du        
   7134 ****        12.7500  33.5000  21.2500 Du        
   7135 ****        12.7500  33.5000  27.5000 Du        
   7136 ****        13.0000  25.0000  31.0000 Du        
   7137 ****        13.0000  25.0000  31.2500 Du        
   7138 ****        13.0000  25.0000  31.5000 Du        
   7139 ****        13.0000  25.0000  31.7500 Du        
   7140 ****        13.0000  25.2500  31.0000 Du        
   7141 ****        13.0000  25.2500  31.2500 Du        
   7142 ****        13.0000  25.2500  31.5000 Du        
   7143 ****        13.0000  25.2500  31.7500 Du        
   7144 ****        13.0000  25.2500  32.0000 Du        
   7145 ****        13.0000  25.5000  30.7500 Du        
   7146 ****        13.0000  25.5000  31.0000 Du        
   7147 ****        13.0000  25.5000  31.2500 Du        
   7148 ****        13.0000  25.5000  31.5000 Du        
   7149 ****        13.0000  25.5000  31.7500 Du        
   7150 ****        13.0000  25.5000  32.0000 Du        
   7151 ****        13.0000  25.5000  32.2500 Du        
   7152 ****        13.0000  25.7500  30.5000 Du        
   7153 ****        13.0000  25.7500  30.7500 Du        
   7154 ****        13.0000  25.7500  31.0000 Du        
   7155 ****        13.0000  25.7500  31.2500 Du        
   7156 ****        13.0000  25.7500  31.5000 Du        
   7157 ****        13.0000  25.7500  31.7500 Du        
   7158 ****        13.0000  25.7500  32.0000 Du        
   7159 ****        13.0000  25.7500  32.2500 Du        
   7160 ****        13.0000  26.0000  30.5000 Du        
   7161 ****        13.0000  26.0000  30.7500 Du        
   7162 ****        13.0000  26.0000  31.0000 Du        
   7163 ****        13.0000  26.0000  31.2500 Du        
   7164 ****        13.0000  26.0000  31.5000 Du        
   7165 ****        13.0000  26.0000  31.7500 Du        
   7166 ****        13.0000  26.0000  32.0000 Du        
   7167 ****        13.0000  26.0000  32.2500 Du        
   7168 ****        13.0000  26.2500  30.5000 Du        
   7169 ****        13.0000  26.2500  30.7500 Du        
   7170 ****        13.0000  26.2500  31.5000 Du        
   7171 ****        13.0000  26.2500  31.7500 Du        
   7172 ****        13.0000  26.2500  32.0000 Du        
   7173 ****        13.0000  26.2500  32.2500 Du        
   7174 ****        13.0000  31.2500  26.7500 Du        
   7175 ****        13.0000  31.5000  26.2500 Du        
   7176 ****        13.0000  31.5000  26.5000 Du        
   7177 ****        13.0000  31.5000  26.7500 Du        
   7178 ****        13.0000  31.7500  26.0000 Du        
   7179 ****        13.0000  31.7500  26.2500 Du        
   7180 ****        13.0000  31.7500  26.5000 Du        
   7181 ****        13.0000  31.7500  26.7500 Du        
   7182 ****        13.0000  31.7500  27.0000 Du        
   7183 ****        13.0000  32.0000  26.0000 Du        
   7184 ****        13.0000  32.0000  26.2500 Du        
   7185 ****        13.0000  32.0000  26.5000 Du        
   7186 ****        13.0000  32.0000  26.7500 Du        
   7187 ****        13.0000  32.0000  27.0000 Du        
   7188 ****        13.0000  32.0000  27.2500 Du        
   7189 ****        13.0000  32.2500  25.7500 Du        
   7190 ****        13.0000  32.2500  26.0000 Du        
   7191 ****        13.0000  32.2500  26.2500 Du        
   7192 ****        13.0000  32.2500  26.5000 Du        
   7193 ****        13.0000  32.2500  26.7500 Du        
   7194 ****        13.0000  32.2500  27.0000 Du        
   7195 ****        13.0000  32.2500  27.2500 Du        
   7196 ****        13.0000  32.5000  26.0000 Du        
   7197 ****        13.0000  32.5000  26.2500 Du        
   7198 ****        13.0000  32.5000  26.5000 Du        
   7199 ****        13.0000  32.5000  26.7500 Du        
   7200 ****        13.0000  32.5000  27.0000 Du        
   7201 ****        13.0000  32.5000  27.2500 Du        
   7202 ****        13.0000  32.5000  27.5000 Du        
   7203 ****        13.0000  32.7500  26.0000 Du        
   7204 ****        13.0000  32.7500  26.2500 Du        
   7205 ****        13.0000  32.7500  26.5000 Du        
   7206 ****        13.0000  32.7500  26.7500 Du        
   7207 ****        13.0000  32.7500  27.0000 Du        
   7208 ****        13.0000  32.7500  27.2500 Du        
   7209 ****        13.0000  32.7500  27.5000 Du        
   7210 ****        13.0000  33.0000  20.0000 Du        
   7211 ****        13.0000  33.0000  20.2500 Du        
   7212 ****        13.0000  33.0000  20.5000 Du        
   7213 ****        13.0000  33.0000  20.7500 Du        
   7214 ****        13.0000  33.0000  21.0000 Du        
   7215 ****        13.0000  33.0000  21.2500 Du        
   7216 ****        13.0000  33.0000  26.2500 Du        
   7217 ****        13.0000  33.0000  26.5000 Du        
   7218 ****        13.0000  33.0000  26.7500 Du        
   7219 ****        13.0000  33.0000  27.0000 Du        
   7220 ****        13.0000  33.0000  27.2500 Du        
   7221 ****        13.0000  33.0000  27.5000 Du        
   7222 ****        13.0000  33.2500  19.5000 Du        
   7223 ****        13.0000  33.2500  19.7500 Du        
   7224 ****        13.0000  33.2500  20.0000 Du        
   7225 ****        13.0000  33.2500  20.2500 Du        
   7226 ****        13.0000  33.2500  20.5000 Du        
   7227 ****        13.0000  33.2500  20.7500 Du        
   7228 ****        13.0000  33.2500  21.0000 Du        
   7229 ****        13.0000  33.2500  21.2500 Du        
   7230 ****        13.0000  33.2500  26.7500 Du        
   7231 ****        13.0000  33.2500  27.0000 Du        
   7232 ****        13.0000  33.2500  27.2500 Du        
   7233 ****        13.0000  33.2500  27.5000 Du        
   7234 ****        13.0000  33.2500  27.7500 Du        
   7235 ****        13.0000  33.5000  19.2500 Du        
   7236 ****        13.0000  33.5000  19.5000 Du        
   7237 ****        13.0000  33.5000  19.7500 Du        
   7238 ****        13.0000  33.5000  20.0000 Du        
   7239 ****        13.0000  33.5000  20.2500 Du        
   7240 ****        13.0000  33.5000  20.5000 Du        
   7241 ****        13.0000  33.5000  20.7500 Du        
   7242 ****        13.0000  33.5000  21.0000 Du        
   7243 ****        13.0000  33.5000  21.2500 Du        
   7244 ****        13.0000  33.5000  27.2500 Du        
   7245 ****        13.0000  33.5000  27.5000 Du        
   7246 ****        13.0000  33.7500  20.2500 Du        
   7247 ****        13.0000  33.7500  20.5000 Du        
   7248 ****        13.0000  33.7500  20.7500 Du        
   7249 ****        13.0000  33.7500  21.0000 Du        
   7250 ****        13.2500  25.0000  31.2500 Du        
   7251 ****        13.2500  25.0000  31.5000 Du        
   7252 ****        13.2500  25.0000  31.7500 Du        
   7253 ****        13.2500  25.0000  32.0000 Du        
   7254 ****        13.2500  25.2500  31.0000 Du        
   7255 ****        13.2500  25.2500  31.2500 Du        
   7256 ****        13.2500  25.2500  31.5000 Du        
   7257 ****        13.2500  25.2500  31.7500 Du        
   7258 ****        13.2500  25.2500  32.0000 Du        
   7259 ****        13.2500  25.2500  32.2500 Du        
   7260 ****        13.2500  25.5000  30.7500 Du        
   7261 ****        13.2500  25.5000  31.0000 Du        
   7262 ****        13.2500  25.5000  31.2500 Du        
   7263 ****        13.2500  25.5000  31.5000 Du        
   7264 ****        13.2500  25.5000  31.7500 Du        
   7265 ****        13.2500  25.5000  32.0000 Du        
   7266 ****        13.2500  25.5000  32.2500 Du        
   7267 ****        13.2500  25.7500  30.5000 Du        
   7268 ****        13.2500  25.7500  30.7500 Du        
   7269 ****        13.2500  25.7500  31.0000 Du        
   7270 ****        13.2500  25.7500  31.2500 Du        
   7271 ****        13.2500  25.7500  31.5000 Du        
   7272 ****        13.2500  25.7500  31.7500 Du        
   7273 ****        13.2500  25.7500  32.0000 Du        
   7274 ****        13.2500  25.7500  32.2500 Du        
   7275 ****        13.2500  26.0000  30.2500 Du        
   7276 ****        13.2500  26.0000  30.5000 Du        
   7277 ****        13.2500  26.0000  30.7500 Du        
   7278 ****        13.2500  26.0000  31.0000 Du        
   7279 ****        13.2500  26.0000  31.2500 Du        
   7280 ****        13.2500  26.0000  31.5000 Du        
   7281 ****        13.2500  26.0000  31.7500 Du        
   7282 ****        13.2500  26.0000  32.0000 Du        
   7283 ****        13.2500  26.0000  32.2500 Du        
   7284 ****        13.2500  26.2500  30.2500 Du        
   7285 ****        13.2500  26.2500  30.5000 Du        
   7286 ****        13.2500  26.2500  30.7500 Du        
   7287 ****        13.2500  26.2500  31.0000 Du        
   7288 ****        13.2500  26.2500  31.2500 Du        
   7289 ****        13.2500  26.2500  31.5000 Du        
   7290 ****        13.2500  26.2500  31.7500 Du        
   7291 ****        13.2500  26.2500  32.0000 Du        
   7292 ****        13.2500  26.2500  32.2500 Du        
   7293 ****        13.2500  26.5000  30.0000 Du        
   7294 ****        13.2500  26.5000  30.2500 Du        
   7295 ****        13.2500  26.5000  30.5000 Du        
   7296 ****        13.2500  26.7500  29.7500 Du        
   7297 ****        13.2500  26.7500  30.0000 Du        
   7298 ****        13.2500  31.5000  26.5000 Du        
   7299 ****        13.2500  31.5000  26.7500 Du        
   7300 ****        13.2500  31.7500  26.2500 Du        
   7301 ****        13.2500  31.7500  26.5000 Du        
   7302 ****        13.2500  31.7500  26.7500 Du        
   7303 ****        13.2500  31.7500  27.0000 Du        
   7304 ****        13.2500  32.0000  26.0000 Du        
   7305 ****        13.2500  32.0000  26.2500 Du        
   7306 ****        13.2500  32.0000  26.5000 Du        
   7307 ****        13.2500  32.0000  26.7500 Du        
   7308 ****        13.2500  32.0000  27.0000 Du        
   7309 ****        13.2500  32.2500  26.0000 Du        
   7310 ****        13.2500  32.2500  26.2500 Du        
   7311 ****        13.2500  32.2500  26.5000 Du        
   7312 ****        13.2500  32.2500  26.7500 Du        
   7313 ****        13.2500  32.2500  27.0000 Du        
   7314 ****        13.2500  32.2500  27.2500 Du        
   7315 ****        13.2500  32.5000  25.7500 Du        
   7316 ****        13.2500  32.5000  26.0000 Du        
   7317 ****        13.2500  32.5000  26.2500 Du        
   7318 ****        13.2500  32.5000  26.5000 Du        
   7319 ****        13.2500  32.5000  26.7500 Du        
   7320 ****        13.2500  32.5000  27.0000 Du        
   7321 ****        13.2500  32.5000  27.2500 Du        
   7322 ****        13.2500  32.7500  25.7500 Du        
   7323 ****        13.2500  32.7500  26.0000 Du        
   7324 ****        13.2500  32.7500  26.2500 Du        
   7325 ****        13.2500  32.7500  26.5000 Du        
   7326 ****        13.2500  32.7500  26.7500 Du        
   7327 ****        13.2500  32.7500  27.0000 Du        
   7328 ****        13.2500  32.7500  27.2500 Du        
   7329 ****        13.2500  32.7500  27.5000 Du        
   7330 ****        13.2500  33.0000  20.2500 Du        
   7331 ****        13.2500  33.0000  20.7500 Du        
   7332 ****        13.2500  33.0000  21.0000 Du        
   7333 ****        13.2500  33.0000  26.2500 Du        
   7334 ****        13.2500  33.0000  26.5000 Du        
   7335 ****        13.2500  33.0000  26.7500 Du        
   7336 ****        13.2500  33.0000  27.0000 Du        
   7337 ****        13.2500  33.0000  27.2500 Du        
   7338 ****        13.2500  33.0000  27.5000 Du        
   7339 ****        13.2500  33.2500  19.2500 Du        
   7340 ****        13.2500  33.2500  19.5000 Du        
   7341 ****        13.2500  33.2500  19.7500 Du        
   7342 ****        13.2500  33.2500  20.0000 Du        
   7343 ****        13.2500  33.2500  20.2500 Du        
   7344 ****        13.2500  33.2500  20.5000 Du        
   7345 ****        13.2500  33.2500  20.7500 Du        
   7346 ****        13.2500  33.2500  21.0000 Du        
   7347 ****        13.2500  33.2500  21.2500 Du        
   7348 ****        13.2500  33.2500  26.7500 Du        
   7349 ****        13.2500  33.2500  27.0000 Du        
   7350 ****        13.2500  33.2500  27.2500 Du        
   7351 ****        13.2500  33.2500  27.5000 Du        
   7352 ****        13.2500  33.5000  19.0000 Du        
   7353 ****        13.2500  33.5000  19.2500 Du        
   7354 ****        13.2500  33.5000  19.5000 Du        
   7355 ****        13.2500  33.5000  19.7500 Du        
   7356 ****        13.2500  33.5000  20.0000 Du        
   7357 ****        13.2500  33.5000  20.2500 Du        
   7358 ****        13.2500  33.5000  20.5000 Du        
   7359 ****        13.2500  33.5000  20.7500 Du        
   7360 ****        13.2500  33.5000  21.0000 Du        
   7361 ****        13.2500  33.5000  21.2500 Du        
   7362 ****        13.2500  33.5000  27.0000 Du        
   7363 ****        13.2500  33.5000  27.2500 Du        
   7364 ****        13.2500  33.5000  27.5000 Du        
   7365 ****        13.2500  33.7500  18.7500 Du        
   7366 ****        13.2500  33.7500  19.0000 Du        
   7367 ****        13.2500  33.7500  19.2500 Du        
   7368 ****        13.2500  33.7500  19.5000 Du        
   7369 ****        13.2500  33.7500  19.7500 Du        
   7370 ****        13.2500  33.7500  20.0000 Du        
   7371 ****        13.2500  33.7500  20.2500 Du        
   7372 ****        13.2500  33.7500  20.5000 Du        
   7373 ****        13.2500  33.7500  20.7500 Du        
   7374 ****        13.2500  33.7500  21.0000 Du        
   7375 ****        13.5000  25.2500  31.5000 Du        
   7376 ****        13.5000  25.2500  31.7500 Du        
   7377 ****        13.5000  25.5000  31.2500 Du        
   7378 ****        13.5000  25.5000  31.5000 Du        
   7379 ****        13.5000  25.5000  31.7500 Du        
   7380 ****        13.5000  25.5000  32.0000 Du        
   7381 ****        13.5000  25.5000  32.2500 Du        
   7382 ****        13.5000  25.7500  31.0000 Du        
   7383 ****        13.5000  25.7500  31.2500 Du        
   7384 ****        13.5000  25.7500  31.5000 Du        
   7385 ****        13.5000  25.7500  31.7500 Du        
   7386 ****        13.5000  25.7500  32.0000 Du        
   7387 ****        13.5000  25.7500  32.2500 Du        
   7388 ****        13.5000  26.0000  30.5000 Du        
   7389 ****        13.5000  26.0000  30.7500 Du        
   7390 ****        13.5000  26.0000  31.0000 Du        
   7391 ****        13.5000  26.0000  31.2500 Du        
   7392 ****        13.5000  26.0000  31.5000 Du        
   7393 ****        13.5000  26.0000  31.7500 Du        
   7394 ****        13.5000  26.0000  32.0000 Du        
   7395 ****        13.5000  26.0000  32.2500 Du        
   7396 ****        13.5000  26.2500  30.5000 Du        
   7397 ****        13.5000  26.2500  30.7500 Du        
   7398 ****        13.5000  26.2500  31.7500 Du        
   7399 ****        13.5000  26.2500  32.0000 Du        
   7400 ****        13.5000  26.2500  32.2500 Du        
   7401 ****        13.5000  26.5000  30.5000 Du        
   7402 ****        13.5000  32.0000  26.5000 Du        
   7403 ****        13.5000  32.0000  26.7500 Du        
   7404 ****        13.5000  32.2500  26.2500 Du        
   7405 ****        13.5000  32.2500  26.5000 Du        
   7406 ****        13.5000  32.2500  26.7500 Du        
   7407 ****        13.5000  32.2500  27.0000 Du        
   7408 ****        13.5000  32.5000  26.0000 Du        
   7409 ****        13.5000  32.5000  26.2500 Du        
   7410 ****        13.5000  32.5000  26.5000 Du        
   7411 ****        13.5000  32.5000  26.7500 Du        
   7412 ****        13.5000  32.5000  27.0000 Du        
   7413 ****        13.5000  32.7500  25.7500 Du        
   7414 ****        13.5000  32.7500  26.0000 Du        
   7415 ****        13.5000  32.7500  26.2500 Du        
   7416 ****        13.5000  32.7500  26.5000 Du        
   7417 ****        13.5000  32.7500  26.7500 Du        
   7418 ****        13.5000  32.7500  27.0000 Du        
   7419 ****        13.5000  33.0000  26.0000 Du        
   7420 ****        13.5000  33.0000  26.2500 Du        
   7421 ****        13.5000  33.0000  26.5000 Du        
   7422 ****        13.5000  33.0000  26.7500 Du        
   7423 ****        13.5000  33.0000  27.0000 Du        
   7424 ****        13.5000  33.0000  27.2500 Du        
   7425 ****        13.5000  33.0000  27.5000 Du        
   7426 ****        13.5000  33.2500  26.5000 Du        
   7427 ****        13.5000  33.2500  26.7500 Du        
   7428 ****        13.5000  33.2500  27.0000 Du        
   7429 ****        13.5000  33.2500  27.2500 Du        
   7430 ****        13.5000  33.2500  27.5000 Du        
   7431 ****        13.7500  25.5000  31.5000 Du        
   7432 ****        13.7500  25.5000  31.7500 Du        
   7433 ****        13.7500  25.5000  32.0000 Du        
   7434 ****        13.7500  25.5000  32.2500 Du        
   7435 ****        13.7500  25.7500  31.0000 Du        
   7436 ****        13.7500  25.7500  31.2500 Du        
   7437 ****        13.7500  25.7500  31.5000 Du        
   7438 ****        13.7500  25.7500  31.7500 Du        
   7439 ****        13.7500  25.7500  32.0000 Du        
   7440 ****        13.7500  25.7500  32.2500 Du        
   7441 ****        13.7500  26.0000  30.7500 Du        
   7442 ****        13.7500  26.0000  31.0000 Du        
   7443 ****        13.7500  26.0000  31.2500 Du        
   7444 ****        13.7500  26.0000  31.5000 Du        
   7445 ****        13.7500  26.0000  31.7500 Du        
   7446 ****        13.7500  26.0000  32.0000 Du        
   7447 ****        13.7500  26.0000  32.2500 Du        
   7448 ****        13.7500  26.2500  30.5000 Du        
   7449 ****        13.7500  26.2500  30.7500 Du        
   7450 ****        13.7500  26.2500  31.5000 Du        
   7451 ****        13.7500  26.2500  31.7500 Du        
   7452 ****        13.7500  26.2500  32.0000 Du        
   7453 ****        13.7500  26.2500  32.2500 Du        
   7454 ****        13.7500  26.5000  30.2500 Du        
   7455 ****        13.7500  32.2500  26.5000 Du        
   7456 ****        13.7500  32.2500  26.7500 Du        
   7457 ****        13.7500  32.5000  26.2500 Du        
   7458 ****        13.7500  32.5000  26.5000 Du        
   7459 ****        13.7500  32.5000  26.7500 Du        
   7460 ****        13.7500  32.7500  25.7500 Du        
   7461 ****        13.7500  32.7500  26.0000 Du        
   7462 ****        13.7500  32.7500  26.2500 Du        
   7463 ****        13.7500  32.7500  26.5000 Du        
   7464 ****        13.7500  32.7500  26.7500 Du        
   7465 ****        13.7500  32.7500  27.0000 Du        
   7466 ****        13.7500  33.0000  26.0000 Du        
   7467 ****        13.7500  33.0000  26.2500 Du        
   7468 ****        13.7500  33.0000  26.5000 Du        
   7469 ****        13.7500  33.0000  26.7500 Du        
   7470 ****        13.7500  33.0000  27.0000 Du        
   7471 ****        13.7500  33.0000  27.2500 Du        
   7472 ****        13.7500  33.2500  26.5000 Du        
   7473 ****        13.7500  33.2500  26.7500 Du        
   7474 ****        13.7500  33.2500  27.0000 Du        
   7475 ****        13.7500  33.2500  27.2500 Du        
   7476 ****        14.0000  25.5000  32.2500 Du        
   7477 ****        14.0000  25.7500  31.7500 Du        
   7478 ****        14.0000  25.7500  32.0000 Du        
   7479 ****        14.0000  25.7500  32.2500 Du        
   7480 ****        14.0000  26.0000  31.5000 Du        
   7481 ****        14.0000  26.0000  31.7500 Du        
   7482 ****        14.0000  26.0000  32.0000 Du        
   7483 ****        14.0000  26.0000  32.2500 Du        
   7484 ****        14.0000  26.2500  31.7500 Du        
   7485 ****        14.0000  26.2500  32.0000 Du        
   7486 ****        14.0000  26.2500  32.2500 Du        
   7487 ****        14.0000  32.5000  26.5000 Du        
   7488 ****        14.0000  32.7500  25.7500 Du        
   7489 ****        14.0000  32.7500  26.0000 Du        
   7490 ****        14.0000  32.7500  26.2500 Du        
   7491 ****        14.0000  32.7500  26.5000 Du        
   7492 ****        14.0000  32.7500  26.7500 Du        
   7493 ****        14.0000  33.0000  25.7500 Du        
   7494 ****        14.0000  33.0000  26.0000 Du        
   7495 ****        14.0000  33.0000  26.2500 Du        
   7496 ****        14.0000  33.0000  26.5000 Du        
   7497 ****        14.0000  33.0000  26.7500 Du        
   7498 ****        14.0000  33.0000  27.0000 Du        
   7499 ****        14.0000  33.2500  26.2500 Du        
   7500 ****        14.0000  33.2500  26.5000 Du        
   7501 ****        14.0000  33.2500  26.7500 Du        
   7502 ****        14.0000  33.2500  27.0000 Du        
   7503 ****        14.2500  26.0000  32.0000 Du        
   7504 ****        14.2500  26.0000  32.2500 Du        
   7505 ****        14.2500  26.2500  32.0000 Du        
   7506 ****        14.2500  26.2500  32.2500 Du        
   7507 ****        14.2500  32.7500  26.2500 Du        
   7508 ****        14.2500  32.7500  26.5000 Du        
   7509 ****        14.2500  33.0000  25.7500 Du        
   7510 ****        14.2500  33.0000  26.0000 Du        
   7511 ****        14.2500  33.0000  26.2500 Du        
   7512 ****        14.2500  33.0000  26.5000 Du        
   7513 ****        14.2500  33.0000  26.7500 Du        
   7514 ****        14.2500  33.2500  26.2500 Du        
   7515 ****        14.2500  33.2500  26.5000 Du        
   7516 ****        14.2500  33.2500  26.7500 Du        
   7517 ****        14.7500  26.5000  32.2500 Du        
